1

   Abaqus 6.13-1                                  Date 09-Feb-2016   Time 18:19:52
   For use by  under license from Dassault Systemes or its subsidiary.

                                                                                 
                                                                                 
 STEP    1     INCREMENT     1     STEP TIME    0.00    


                        S T E P       1     S T E A D Y   S T A T E   A N A L Y S I S                


                                                                                          
          DIRECT CALCULATION WITH COMPLEX MATRICES

          FULL STRUCTURAL-ACOUSTIC COUPLING IS USED IN THIS
          FORCED RESPONSE ANALYSIS
          FREQUENCY RANGE DEFINITIONS (CYCLES/TIME)
                LOW         HIGH        POINTS        BIAS     SCALE FACTOR  TYPE OF SCALING


              1.300E+03    2.400E+03      550         1.00         1.00       Linear          

     THIS IS A LINEAR PERTURBATION STEP.
     ALL LOADS ARE DEFINED AS CHANGE IN LOAD TO THE REFERENCE STATE

     EXTRAPOLATION WILL NOT BE USED

     CHARACTERISTIC ELEMENT LENGTH     2.528E-02

     DETAILS REGARDING ACTUAL SOLUTION WAVEFRONT REQUESTED

     DETAILED OUTPUT OF DIAGNOSTICS TO DATABASE REQUESTED

     PRINT OF INCREMENT NUMBER, TIME, ETC., TO THE MESSAGE FILE EVERY     1  INCREMENTS

     ELEMENT OPERATIONS WILL NOT BE CARRIED OUT IN PARALLEL

     EQUATIONS ARE BEING REORDERED TO MINIMIZE WAVEFRONT

     COLLECTING MODEL CONSTRAINT INFORMATION FOR OVERCONSTRAINT CHECKS

     COLLECTING STEP CONSTRAINT INFORMATION FOR OVERCONSTRAINT CHECKS


          INCREMENT NUMBER    1  AT FREQUENCY (CYCLES/TIME) =   1300.0000    

  NUMBER OF EQUATIONS =    27290     NUMBER OF FLOATING PT. OPERATIONS =  2.49E+10

  USING THE DIRECT SOLVER WITH   8 PROCESSORS

     CHECK POINT   START OF SOLVER    

     CHECK POINT  END OF SOLVER       

       ELAPSED USER TIME (SEC)      =   6.7000    
       ELAPSED SYSTEM TIME (SEC)    =  0.40000    
       ELAPSED TOTAL CPU TIME (SEC) =   7.1000    
       ELAPSED WALLCLOCK TIME (SEC) =          1


          INCREMENT NUMBER    2  AT FREQUENCY (CYCLES/TIME) =   1302.0036    

  NUMBER OF EQUATIONS =    27290     NUMBER OF FLOATING PT. OPERATIONS =  2.49E+10

  USING THE DIRECT SOLVER WITH   8 PROCESSORS

     CHECK POINT   START OF SOLVER    

     CHECK POINT  END OF SOLVER       

       ELAPSED USER TIME (SEC)      =   6.4000    
       ELAPSED SYSTEM TIME (SEC)    =   0.0000    
       ELAPSED TOTAL CPU TIME (SEC) =   6.4000    
       ELAPSED WALLCLOCK TIME (SEC) =          0


          INCREMENT NUMBER    3  AT FREQUENCY (CYCLES/TIME) =   1304.0073    

  NUMBER OF EQUATIONS =    27290     NUMBER OF FLOATING PT. OPERATIONS =  2.49E+10

  USING THE DIRECT SOLVER WITH   8 PROCESSORS

     CHECK POINT   START OF SOLVER    

     CHECK POINT  END OF SOLVER       

       ELAPSED USER TIME (SEC)      =   6.8000    
       ELAPSED SYSTEM TIME (SEC)    =   0.0000    
       ELAPSED TOTAL CPU TIME (SEC) =   6.8000    
       ELAPSED WALLCLOCK TIME (SEC) =          0


          INCREMENT NUMBER    4  AT FREQUENCY (CYCLES/TIME) =   1306.0109    

  NUMBER OF EQUATIONS =    27290     NUMBER OF FLOATING PT. OPERATIONS =  2.49E+10

  USING THE DIRECT SOLVER WITH   8 PROCESSORS

     CHECK POINT   START OF SOLVER    

     CHECK POINT  END OF SOLVER       

       ELAPSED USER TIME (SEC)      =   6.4000    
       ELAPSED SYSTEM TIME (SEC)    =   0.0000    
       ELAPSED TOTAL CPU TIME (SEC) =   6.4000    
       ELAPSED WALLCLOCK TIME (SEC) =          0


          INCREMENT NUMBER    5  AT FREQUENCY (CYCLES/TIME) =   1308.0146    

  NUMBER OF EQUATIONS =    27290     NUMBER OF FLOATING PT. OPERATIONS =  2.49E+10

  USING THE DIRECT SOLVER WITH   8 PROCESSORS

     CHECK POINT   START OF SOLVER    

     CHECK POINT  END OF SOLVER       

       ELAPSED USER TIME (SEC)      =   6.6000    
       ELAPSED SYSTEM TIME (SEC)    =   0.0000    
       ELAPSED TOTAL CPU TIME (SEC) =   6.6000    
       ELAPSED WALLCLOCK TIME (SEC) =          0


          INCREMENT NUMBER    6  AT FREQUENCY (CYCLES/TIME) =   1310.0182    

  NUMBER OF EQUATIONS =    27290     NUMBER OF FLOATING PT. OPERATIONS =  2.49E+10

  USING THE DIRECT SOLVER WITH   8 PROCESSORS

     CHECK POINT   START OF SOLVER    

     CHECK POINT  END OF SOLVER       

       ELAPSED USER TIME (SEC)      =   6.4000    
       ELAPSED SYSTEM TIME (SEC)    =   0.0000    
       ELAPSED TOTAL CPU TIME (SEC) =   6.4000    
       ELAPSED WALLCLOCK TIME (SEC) =          0


          INCREMENT NUMBER    7  AT FREQUENCY (CYCLES/TIME) =   1312.0219    

  NUMBER OF EQUATIONS =    27290     NUMBER OF FLOATING PT. OPERATIONS =  2.49E+10

  USING THE DIRECT SOLVER WITH   8 PROCESSORS

     CHECK POINT   START OF SOLVER    

     CHECK POINT  END OF SOLVER       

       ELAPSED USER TIME (SEC)      =   6.3000    
       ELAPSED SYSTEM TIME (SEC)    =   0.0000    
       ELAPSED TOTAL CPU TIME (SEC) =   6.3000    
       ELAPSED WALLCLOCK TIME (SEC) =          0


          INCREMENT NUMBER    8  AT FREQUENCY (CYCLES/TIME) =   1314.0255    

  NUMBER OF EQUATIONS =    27290     NUMBER OF FLOATING PT. OPERATIONS =  2.49E+10

  USING THE DIRECT SOLVER WITH   8 PROCESSORS

     CHECK POINT   START OF SOLVER    

     CHECK POINT  END OF SOLVER       

       ELAPSED USER TIME (SEC)      =   6.3000    
       ELAPSED SYSTEM TIME (SEC)    =   0.0000    
       ELAPSED TOTAL CPU TIME (SEC) =   6.3000    
       ELAPSED WALLCLOCK TIME (SEC) =          0


          INCREMENT NUMBER    9  AT FREQUENCY (CYCLES/TIME) =   1316.0291    

  NUMBER OF EQUATIONS =    27290     NUMBER OF FLOATING PT. OPERATIONS =  2.49E+10

  USING THE DIRECT SOLVER WITH   8 PROCESSORS

     CHECK POINT   START OF SOLVER    

     CHECK POINT  END OF SOLVER       

       ELAPSED USER TIME (SEC)      =   6.4000    
       ELAPSED SYSTEM TIME (SEC)    =   0.0000    
       ELAPSED TOTAL CPU TIME (SEC) =   6.4000    
       ELAPSED WALLCLOCK TIME (SEC) =          0


          INCREMENT NUMBER   10  AT FREQUENCY (CYCLES/TIME) =   1318.0328    

  NUMBER OF EQUATIONS =    27290     NUMBER OF FLOATING PT. OPERATIONS =  2.49E+10

  USING THE DIRECT SOLVER WITH   8 PROCESSORS

     CHECK POINT   START OF SOLVER    

     CHECK POINT  END OF SOLVER       

       ELAPSED USER TIME (SEC)      =   6.8000    
       ELAPSED SYSTEM TIME (SEC)    =   0.0000    
       ELAPSED TOTAL CPU TIME (SEC) =   6.8000    
       ELAPSED WALLCLOCK TIME (SEC) =          1


          INCREMENT NUMBER   11  AT FREQUENCY (CYCLES/TIME) =   1320.0364    

  NUMBER OF EQUATIONS =    27290     NUMBER OF FLOATING PT. OPERATIONS =  2.49E+10

  USING THE DIRECT SOLVER WITH   8 PROCESSORS

     CHECK POINT   START OF SOLVER    

     CHECK POINT  END OF SOLVER       

       ELAPSED USER TIME (SEC)      =   6.8000    
       ELAPSED SYSTEM TIME (SEC)    =   0.0000    
       ELAPSED TOTAL CPU TIME (SEC) =   6.8000    
       ELAPSED WALLCLOCK TIME (SEC) =          1


          INCREMENT NUMBER   12  AT FREQUENCY (CYCLES/TIME) =   1322.0401    

  NUMBER OF EQUATIONS =    27290     NUMBER OF FLOATING PT. OPERATIONS =  2.49E+10

  USING THE DIRECT SOLVER WITH   8 PROCESSORS

     CHECK POINT   START OF SOLVER    

     CHECK POINT  END OF SOLVER       

       ELAPSED USER TIME (SEC)      =   6.3000    
       ELAPSED SYSTEM TIME (SEC)    =   0.0000    
       ELAPSED TOTAL CPU TIME (SEC) =   6.3000    
       ELAPSED WALLCLOCK TIME (SEC) =          1


          INCREMENT NUMBER   13  AT FREQUENCY (CYCLES/TIME) =   1324.0437    

  NUMBER OF EQUATIONS =    27290     NUMBER OF FLOATING PT. OPERATIONS =  2.49E+10

  USING THE DIRECT SOLVER WITH   8 PROCESSORS

     CHECK POINT   START OF SOLVER    

     CHECK POINT  END OF SOLVER       

       ELAPSED USER TIME (SEC)      =   6.5000    
       ELAPSED SYSTEM TIME (SEC)    =   0.0000    
       ELAPSED TOTAL CPU TIME (SEC) =   6.5000    
       ELAPSED WALLCLOCK TIME (SEC) =          1


          INCREMENT NUMBER   14  AT FREQUENCY (CYCLES/TIME) =   1326.0474    

  NUMBER OF EQUATIONS =    27290     NUMBER OF FLOATING PT. OPERATIONS =  2.49E+10

  USING THE DIRECT SOLVER WITH   8 PROCESSORS

     CHECK POINT   START OF SOLVER    

     CHECK POINT  END OF SOLVER       

       ELAPSED USER TIME (SEC)      =   6.3000    
       ELAPSED SYSTEM TIME (SEC)    =   0.0000    
       ELAPSED TOTAL CPU TIME (SEC) =   6.3000    
       ELAPSED WALLCLOCK TIME (SEC) =          1


          INCREMENT NUMBER   15  AT FREQUENCY (CYCLES/TIME) =   1328.0510    

  NUMBER OF EQUATIONS =    27290     NUMBER OF FLOATING PT. OPERATIONS =  2.49E+10

  USING THE DIRECT SOLVER WITH   8 PROCESSORS

     CHECK POINT   START OF SOLVER    

     CHECK POINT  END OF SOLVER       

       ELAPSED USER TIME (SEC)      =   6.3000    
       ELAPSED SYSTEM TIME (SEC)    =  0.10000    
       ELAPSED TOTAL CPU TIME (SEC) =   6.4000    
       ELAPSED WALLCLOCK TIME (SEC) =          1


          INCREMENT NUMBER   16  AT FREQUENCY (CYCLES/TIME) =   1330.0546    

  NUMBER OF EQUATIONS =    27290     NUMBER OF FLOATING PT. OPERATIONS =  2.49E+10

  USING THE DIRECT SOLVER WITH   8 PROCESSORS

     CHECK POINT   START OF SOLVER    

     CHECK POINT  END OF SOLVER       

       ELAPSED USER TIME (SEC)      =   6.5000    
       ELAPSED SYSTEM TIME (SEC)    =   0.0000    
       ELAPSED TOTAL CPU TIME (SEC) =   6.5000    
       ELAPSED WALLCLOCK TIME (SEC) =          1


          INCREMENT NUMBER   17  AT FREQUENCY (CYCLES/TIME) =   1332.0583    

  NUMBER OF EQUATIONS =    27290     NUMBER OF FLOATING PT. OPERATIONS =  2.49E+10

  USING THE DIRECT SOLVER WITH   8 PROCESSORS

     CHECK POINT   START OF SOLVER    

     CHECK POINT  END OF SOLVER       

       ELAPSED USER TIME (SEC)      =   6.8000    
       ELAPSED SYSTEM TIME (SEC)    =   0.0000    
       ELAPSED TOTAL CPU TIME (SEC) =   6.8000    
       ELAPSED WALLCLOCK TIME (SEC) =          1


          INCREMENT NUMBER   18  AT FREQUENCY (CYCLES/TIME) =   1334.0619    

  NUMBER OF EQUATIONS =    27290     NUMBER OF FLOATING PT. OPERATIONS =  2.49E+10

  USING THE DIRECT SOLVER WITH   8 PROCESSORS

     CHECK POINT   START OF SOLVER    

     CHECK POINT  END OF SOLVER       

       ELAPSED USER TIME (SEC)      =   6.5000    
       ELAPSED SYSTEM TIME (SEC)    =   0.0000    
       ELAPSED TOTAL CPU TIME (SEC) =   6.5000    
       ELAPSED WALLCLOCK TIME (SEC) =          1


          INCREMENT NUMBER   19  AT FREQUENCY (CYCLES/TIME) =   1336.0656    

  NUMBER OF EQUATIONS =    27290     NUMBER OF FLOATING PT. OPERATIONS =  2.49E+10

  USING THE DIRECT SOLVER WITH   8 PROCESSORS

     CHECK POINT   START OF SOLVER    

     CHECK POINT  END OF SOLVER       

       ELAPSED USER TIME (SEC)      =   6.7000    
       ELAPSED SYSTEM TIME (SEC)    =   0.0000    
       ELAPSED TOTAL CPU TIME (SEC) =   6.7000    
       ELAPSED WALLCLOCK TIME (SEC) =          1


          INCREMENT NUMBER   20  AT FREQUENCY (CYCLES/TIME) =   1338.0692    

  NUMBER OF EQUATIONS =    27290     NUMBER OF FLOATING PT. OPERATIONS =  2.49E+10

  USING THE DIRECT SOLVER WITH   8 PROCESSORS

     CHECK POINT   START OF SOLVER    

     CHECK POINT  END OF SOLVER       

       ELAPSED USER TIME (SEC)      =   6.6000    
       ELAPSED SYSTEM TIME (SEC)    =   0.0000    
       ELAPSED TOTAL CPU TIME (SEC) =   6.6000    
       ELAPSED WALLCLOCK TIME (SEC) =          1


          INCREMENT NUMBER   21  AT FREQUENCY (CYCLES/TIME) =   1340.0729    

  NUMBER OF EQUATIONS =    27290     NUMBER OF FLOATING PT. OPERATIONS =  2.49E+10

  USING THE DIRECT SOLVER WITH   8 PROCESSORS

     CHECK POINT   START OF SOLVER    

     CHECK POINT  END OF SOLVER       

       ELAPSED USER TIME (SEC)      =   6.6000    
       ELAPSED SYSTEM TIME (SEC)    =   0.0000    
       ELAPSED TOTAL CPU TIME (SEC) =   6.6000    
       ELAPSED WALLCLOCK TIME (SEC) =          1


          INCREMENT NUMBER   22  AT FREQUENCY (CYCLES/TIME) =   1342.0765    

  NUMBER OF EQUATIONS =    27290     NUMBER OF FLOATING PT. OPERATIONS =  2.49E+10

  USING THE DIRECT SOLVER WITH   8 PROCESSORS

     CHECK POINT   START OF SOLVER    

     CHECK POINT  END OF SOLVER       

       ELAPSED USER TIME (SEC)      =   6.7000    
       ELAPSED SYSTEM TIME (SEC)    =   0.0000    
       ELAPSED TOTAL CPU TIME (SEC) =   6.7000    
       ELAPSED WALLCLOCK TIME (SEC) =          1


          INCREMENT NUMBER   23  AT FREQUENCY (CYCLES/TIME) =   1344.0801    

  NUMBER OF EQUATIONS =    27290     NUMBER OF FLOATING PT. OPERATIONS =  2.49E+10

  USING THE DIRECT SOLVER WITH   8 PROCESSORS

     CHECK POINT   START OF SOLVER    

     CHECK POINT  END OF SOLVER       

       ELAPSED USER TIME (SEC)      =   6.3000    
       ELAPSED SYSTEM TIME (SEC)    =   0.0000    
       ELAPSED TOTAL CPU TIME (SEC) =   6.3000    
       ELAPSED WALLCLOCK TIME (SEC) =          1


          INCREMENT NUMBER   24  AT FREQUENCY (CYCLES/TIME) =   1346.0838    

  NUMBER OF EQUATIONS =    27290     NUMBER OF FLOATING PT. OPERATIONS =  2.49E+10

  USING THE DIRECT SOLVER WITH   8 PROCESSORS

     CHECK POINT   START OF SOLVER    

     CHECK POINT  END OF SOLVER       

       ELAPSED USER TIME (SEC)      =   6.3000    
       ELAPSED SYSTEM TIME (SEC)    =   0.0000    
       ELAPSED TOTAL CPU TIME (SEC) =   6.3000    
       ELAPSED WALLCLOCK TIME (SEC) =          1


          INCREMENT NUMBER   25  AT FREQUENCY (CYCLES/TIME) =   1348.0874    

  NUMBER OF EQUATIONS =    27290     NUMBER OF FLOATING PT. OPERATIONS =  2.49E+10

  USING THE DIRECT SOLVER WITH   8 PROCESSORS

     CHECK POINT   START OF SOLVER    

     CHECK POINT  END OF SOLVER       

       ELAPSED USER TIME (SEC)      =   6.3000    
       ELAPSED SYSTEM TIME (SEC)    =   0.0000    
       ELAPSED TOTAL CPU TIME (SEC) =   6.3000    
       ELAPSED WALLCLOCK TIME (SEC) =          1


          INCREMENT NUMBER   26  AT FREQUENCY (CYCLES/TIME) =   1350.0911    

  NUMBER OF EQUATIONS =    27290     NUMBER OF FLOATING PT. OPERATIONS =  2.49E+10

  USING THE DIRECT SOLVER WITH   8 PROCESSORS

     CHECK POINT   START OF SOLVER    

     CHECK POINT  END OF SOLVER       

       ELAPSED USER TIME (SEC)      =   6.7000    
       ELAPSED SYSTEM TIME (SEC)    =   0.0000    
       ELAPSED TOTAL CPU TIME (SEC) =   6.7000    
       ELAPSED WALLCLOCK TIME (SEC) =          1


          INCREMENT NUMBER   27  AT FREQUENCY (CYCLES/TIME) =   1352.0947    

  NUMBER OF EQUATIONS =    27290     NUMBER OF FLOATING PT. OPERATIONS =  2.49E+10

  USING THE DIRECT SOLVER WITH   8 PROCESSORS

     CHECK POINT   START OF SOLVER    

     CHECK POINT  END OF SOLVER       

       ELAPSED USER TIME (SEC)      =   6.4000    
       ELAPSED SYSTEM TIME (SEC)    =   0.0000    
       ELAPSED TOTAL CPU TIME (SEC) =   6.4000    
       ELAPSED WALLCLOCK TIME (SEC) =          1


          INCREMENT NUMBER   28  AT FREQUENCY (CYCLES/TIME) =   1354.0984    

  NUMBER OF EQUATIONS =    27290     NUMBER OF FLOATING PT. OPERATIONS =  2.49E+10

  USING THE DIRECT SOLVER WITH   8 PROCESSORS

     CHECK POINT   START OF SOLVER    

     CHECK POINT  END OF SOLVER       

       ELAPSED USER TIME (SEC)      =   6.1000    
       ELAPSED SYSTEM TIME (SEC)    =   0.0000    
       ELAPSED TOTAL CPU TIME (SEC) =   6.1000    
       ELAPSED WALLCLOCK TIME (SEC) =          1


          INCREMENT NUMBER   29  AT FREQUENCY (CYCLES/TIME) =   1356.1020    

  NUMBER OF EQUATIONS =    27290     NUMBER OF FLOATING PT. OPERATIONS =  2.49E+10

  USING THE DIRECT SOLVER WITH   8 PROCESSORS

     CHECK POINT   START OF SOLVER    

     CHECK POINT  END OF SOLVER       

       ELAPSED USER TIME (SEC)      =   6.5000    
       ELAPSED SYSTEM TIME (SEC)    =   0.0000    
       ELAPSED TOTAL CPU TIME (SEC) =   6.5000    
       ELAPSED WALLCLOCK TIME (SEC) =          0


          INCREMENT NUMBER   30  AT FREQUENCY (CYCLES/TIME) =   1358.1056    

  NUMBER OF EQUATIONS =    27290     NUMBER OF FLOATING PT. OPERATIONS =  2.49E+10

  USING THE DIRECT SOLVER WITH   8 PROCESSORS

     CHECK POINT   START OF SOLVER    

     CHECK POINT  END OF SOLVER       

       ELAPSED USER TIME (SEC)      =   6.3000    
       ELAPSED SYSTEM TIME (SEC)    =   0.0000    
       ELAPSED TOTAL CPU TIME (SEC) =   6.3000    
       ELAPSED WALLCLOCK TIME (SEC) =          1


          INCREMENT NUMBER   31  AT FREQUENCY (CYCLES/TIME) =   1360.1093    

  NUMBER OF EQUATIONS =    27290     NUMBER OF FLOATING PT. OPERATIONS =  2.49E+10

  USING THE DIRECT SOLVER WITH   8 PROCESSORS

     CHECK POINT   START OF SOLVER    

     CHECK POINT  END OF SOLVER       

       ELAPSED USER TIME (SEC)      =   6.4000    
       ELAPSED SYSTEM TIME (SEC)    =   0.0000    
       ELAPSED TOTAL CPU TIME (SEC) =   6.4000    
       ELAPSED WALLCLOCK TIME (SEC) =          1


          INCREMENT NUMBER   32  AT FREQUENCY (CYCLES/TIME) =   1362.1129    

  NUMBER OF EQUATIONS =    27290     NUMBER OF FLOATING PT. OPERATIONS =  2.49E+10

  USING THE DIRECT SOLVER WITH   8 PROCESSORS

     CHECK POINT   START OF SOLVER    

     CHECK POINT  END OF SOLVER       

       ELAPSED USER TIME (SEC)      =   6.3000    
       ELAPSED SYSTEM TIME (SEC)    =   0.0000    
       ELAPSED TOTAL CPU TIME (SEC) =   6.3000    
       ELAPSED WALLCLOCK TIME (SEC) =          1


          INCREMENT NUMBER   33  AT FREQUENCY (CYCLES/TIME) =   1364.1166    

  NUMBER OF EQUATIONS =    27290     NUMBER OF FLOATING PT. OPERATIONS =  2.49E+10

  USING THE DIRECT SOLVER WITH   8 PROCESSORS

     CHECK POINT   START OF SOLVER    

     CHECK POINT  END OF SOLVER       

       ELAPSED USER TIME (SEC)      =   6.5000    
       ELAPSED SYSTEM TIME (SEC)    =  0.10000    
       ELAPSED TOTAL CPU TIME (SEC) =   6.6000    
       ELAPSED WALLCLOCK TIME (SEC) =          1


          INCREMENT NUMBER   34  AT FREQUENCY (CYCLES/TIME) =   1366.1202    

  NUMBER OF EQUATIONS =    27290     NUMBER OF FLOATING PT. OPERATIONS =  2.49E+10

  USING THE DIRECT SOLVER WITH   8 PROCESSORS

     CHECK POINT   START OF SOLVER    

     CHECK POINT  END OF SOLVER       

       ELAPSED USER TIME (SEC)      =   6.8000    
       ELAPSED SYSTEM TIME (SEC)    =   0.0000    
       ELAPSED TOTAL CPU TIME (SEC) =   6.8000    
       ELAPSED WALLCLOCK TIME (SEC) =          1


          INCREMENT NUMBER   35  AT FREQUENCY (CYCLES/TIME) =   1368.1239    

  NUMBER OF EQUATIONS =    27290     NUMBER OF FLOATING PT. OPERATIONS =  2.49E+10

  USING THE DIRECT SOLVER WITH   8 PROCESSORS

     CHECK POINT   START OF SOLVER    

     CHECK POINT  END OF SOLVER       

       ELAPSED USER TIME (SEC)      =   7.4000    
       ELAPSED SYSTEM TIME (SEC)    =   0.0000    
       ELAPSED TOTAL CPU TIME (SEC) =   7.4000    
       ELAPSED WALLCLOCK TIME (SEC) =          2


          INCREMENT NUMBER   36  AT FREQUENCY (CYCLES/TIME) =   1370.1275    

  NUMBER OF EQUATIONS =    27290     NUMBER OF FLOATING PT. OPERATIONS =  2.49E+10

  USING THE DIRECT SOLVER WITH   8 PROCESSORS

     CHECK POINT   START OF SOLVER    

     CHECK POINT  END OF SOLVER       

       ELAPSED USER TIME (SEC)      =   6.4000    
       ELAPSED SYSTEM TIME (SEC)    =  0.10000    
       ELAPSED TOTAL CPU TIME (SEC) =   6.5000    
       ELAPSED WALLCLOCK TIME (SEC) =          1


          INCREMENT NUMBER   37  AT FREQUENCY (CYCLES/TIME) =   1372.1311    

  NUMBER OF EQUATIONS =    27290     NUMBER OF FLOATING PT. OPERATIONS =  2.49E+10

  USING THE DIRECT SOLVER WITH   8 PROCESSORS

     CHECK POINT   START OF SOLVER    

     CHECK POINT  END OF SOLVER       

       ELAPSED USER TIME (SEC)      =   6.3000    
       ELAPSED SYSTEM TIME (SEC)    =   0.0000    
       ELAPSED TOTAL CPU TIME (SEC) =   6.3000    
       ELAPSED WALLCLOCK TIME (SEC) =          1


          INCREMENT NUMBER   38  AT FREQUENCY (CYCLES/TIME) =   1374.1348    

  NUMBER OF EQUATIONS =    27290     NUMBER OF FLOATING PT. OPERATIONS =  2.49E+10

  USING THE DIRECT SOLVER WITH   8 PROCESSORS

     CHECK POINT   START OF SOLVER    

     CHECK POINT  END OF SOLVER       

       ELAPSED USER TIME (SEC)      =   6.2000    
       ELAPSED SYSTEM TIME (SEC)    =   0.0000    
       ELAPSED TOTAL CPU TIME (SEC) =   6.2000    
       ELAPSED WALLCLOCK TIME (SEC) =          0


          INCREMENT NUMBER   39  AT FREQUENCY (CYCLES/TIME) =   1376.1384    

  NUMBER OF EQUATIONS =    27290     NUMBER OF FLOATING PT. OPERATIONS =  2.49E+10

  USING THE DIRECT SOLVER WITH   8 PROCESSORS

     CHECK POINT   START OF SOLVER    

     CHECK POINT  END OF SOLVER       

       ELAPSED USER TIME (SEC)      =   6.4000    
       ELAPSED SYSTEM TIME (SEC)    =   0.0000    
       ELAPSED TOTAL CPU TIME (SEC) =   6.4000    
       ELAPSED WALLCLOCK TIME (SEC) =          1


          INCREMENT NUMBER   40  AT FREQUENCY (CYCLES/TIME) =   1378.1421    

  NUMBER OF EQUATIONS =    27290     NUMBER OF FLOATING PT. OPERATIONS =  2.49E+10

  USING THE DIRECT SOLVER WITH   8 PROCESSORS

     CHECK POINT   START OF SOLVER    

     CHECK POINT  END OF SOLVER       

       ELAPSED USER TIME (SEC)      =   6.7000    
       ELAPSED SYSTEM TIME (SEC)    =  0.10000    
       ELAPSED TOTAL CPU TIME (SEC) =   6.8000    
       ELAPSED WALLCLOCK TIME (SEC) =          1


          INCREMENT NUMBER   41  AT FREQUENCY (CYCLES/TIME) =   1380.1457    

  NUMBER OF EQUATIONS =    27290     NUMBER OF FLOATING PT. OPERATIONS =  2.49E+10

  USING THE DIRECT SOLVER WITH   8 PROCESSORS

     CHECK POINT   START OF SOLVER    

     CHECK POINT  END OF SOLVER       

       ELAPSED USER TIME (SEC)      =   6.3000    
       ELAPSED SYSTEM TIME (SEC)    =   0.0000    
       ELAPSED TOTAL CPU TIME (SEC) =   6.3000    
       ELAPSED WALLCLOCK TIME (SEC) =          1


          INCREMENT NUMBER   42  AT FREQUENCY (CYCLES/TIME) =   1382.1494    

  NUMBER OF EQUATIONS =    27290     NUMBER OF FLOATING PT. OPERATIONS =  2.49E+10

  USING THE DIRECT SOLVER WITH   8 PROCESSORS

     CHECK POINT   START OF SOLVER    

     CHECK POINT  END OF SOLVER       

       ELAPSED USER TIME (SEC)      =   6.3000    
       ELAPSED SYSTEM TIME (SEC)    =   0.0000    
       ELAPSED TOTAL CPU TIME (SEC) =   6.3000    
       ELAPSED WALLCLOCK TIME (SEC) =          1


          INCREMENT NUMBER   43  AT FREQUENCY (CYCLES/TIME) =   1384.1530    

  NUMBER OF EQUATIONS =    27290     NUMBER OF FLOATING PT. OPERATIONS =  2.49E+10

  USING THE DIRECT SOLVER WITH   8 PROCESSORS

     CHECK POINT   START OF SOLVER    

     CHECK POINT  END OF SOLVER       

       ELAPSED USER TIME (SEC)      =   6.7000    
       ELAPSED SYSTEM TIME (SEC)    =   0.0000    
       ELAPSED TOTAL CPU TIME (SEC) =   6.7000    
       ELAPSED WALLCLOCK TIME (SEC) =          1


          INCREMENT NUMBER   44  AT FREQUENCY (CYCLES/TIME) =   1386.1566    

  NUMBER OF EQUATIONS =    27290     NUMBER OF FLOATING PT. OPERATIONS =  2.49E+10

  USING THE DIRECT SOLVER WITH   8 PROCESSORS

     CHECK POINT   START OF SOLVER    

     CHECK POINT  END OF SOLVER       

       ELAPSED USER TIME (SEC)      =   6.5000    
       ELAPSED SYSTEM TIME (SEC)    =   0.0000    
       ELAPSED TOTAL CPU TIME (SEC) =   6.5000    
       ELAPSED WALLCLOCK TIME (SEC) =          1


          INCREMENT NUMBER   45  AT FREQUENCY (CYCLES/TIME) =   1388.1603    

  NUMBER OF EQUATIONS =    27290     NUMBER OF FLOATING PT. OPERATIONS =  2.49E+10

  USING THE DIRECT SOLVER WITH   8 PROCESSORS

     CHECK POINT   START OF SOLVER    

     CHECK POINT  END OF SOLVER       

       ELAPSED USER TIME (SEC)      =   6.3000    
       ELAPSED SYSTEM TIME (SEC)    =   0.0000    
       ELAPSED TOTAL CPU TIME (SEC) =   6.3000    
       ELAPSED WALLCLOCK TIME (SEC) =          1


          INCREMENT NUMBER   46  AT FREQUENCY (CYCLES/TIME) =   1390.1639    

  NUMBER OF EQUATIONS =    27290     NUMBER OF FLOATING PT. OPERATIONS =  2.49E+10

  USING THE DIRECT SOLVER WITH   8 PROCESSORS

     CHECK POINT   START OF SOLVER    

     CHECK POINT  END OF SOLVER       

       ELAPSED USER TIME (SEC)      =   6.5000    
       ELAPSED SYSTEM TIME (SEC)    =   0.0000    
       ELAPSED TOTAL CPU TIME (SEC) =   6.5000    
       ELAPSED WALLCLOCK TIME (SEC) =          1


          INCREMENT NUMBER   47  AT FREQUENCY (CYCLES/TIME) =   1392.1676    

  NUMBER OF EQUATIONS =    27290     NUMBER OF FLOATING PT. OPERATIONS =  2.49E+10

  USING THE DIRECT SOLVER WITH   8 PROCESSORS

     CHECK POINT   START OF SOLVER    

     CHECK POINT  END OF SOLVER       

       ELAPSED USER TIME (SEC)      =   6.8000    
       ELAPSED SYSTEM TIME (SEC)    =   0.0000    
       ELAPSED TOTAL CPU TIME (SEC) =   6.8000    
       ELAPSED WALLCLOCK TIME (SEC) =          1


          INCREMENT NUMBER   48  AT FREQUENCY (CYCLES/TIME) =   1394.1712    

  NUMBER OF EQUATIONS =    27290     NUMBER OF FLOATING PT. OPERATIONS =  2.49E+10

  USING THE DIRECT SOLVER WITH   8 PROCESSORS

     CHECK POINT   START OF SOLVER    

     CHECK POINT  END OF SOLVER       

       ELAPSED USER TIME (SEC)      =   6.5000    
       ELAPSED SYSTEM TIME (SEC)    =   0.0000    
       ELAPSED TOTAL CPU TIME (SEC) =   6.5000    
       ELAPSED WALLCLOCK TIME (SEC) =          1


          INCREMENT NUMBER   49  AT FREQUENCY (CYCLES/TIME) =   1396.1749    

  NUMBER OF EQUATIONS =    27290     NUMBER OF FLOATING PT. OPERATIONS =  2.49E+10

  USING THE DIRECT SOLVER WITH   8 PROCESSORS

     CHECK POINT   START OF SOLVER    

     CHECK POINT  END OF SOLVER       

       ELAPSED USER TIME (SEC)      =   6.4000    
       ELAPSED SYSTEM TIME (SEC)    =   0.0000    
       ELAPSED TOTAL CPU TIME (SEC) =   6.4000    
       ELAPSED WALLCLOCK TIME (SEC) =          1


          INCREMENT NUMBER   50  AT FREQUENCY (CYCLES/TIME) =   1398.1785    

  NUMBER OF EQUATIONS =    27290     NUMBER OF FLOATING PT. OPERATIONS =  2.49E+10

  USING THE DIRECT SOLVER WITH   8 PROCESSORS

     CHECK POINT   START OF SOLVER    

     CHECK POINT  END OF SOLVER       

       ELAPSED USER TIME (SEC)      =   6.4000    
       ELAPSED SYSTEM TIME (SEC)    =   0.0000    
       ELAPSED TOTAL CPU TIME (SEC) =   6.4000    
       ELAPSED WALLCLOCK TIME (SEC) =          1


          INCREMENT NUMBER   51  AT FREQUENCY (CYCLES/TIME) =   1400.1821    

  NUMBER OF EQUATIONS =    27290     NUMBER OF FLOATING PT. OPERATIONS =  2.49E+10

  USING THE DIRECT SOLVER WITH   8 PROCESSORS

     CHECK POINT   START OF SOLVER    

     CHECK POINT  END OF SOLVER       

       ELAPSED USER TIME (SEC)      =   6.3000    
       ELAPSED SYSTEM TIME (SEC)    =   0.0000    
       ELAPSED TOTAL CPU TIME (SEC) =   6.3000    
       ELAPSED WALLCLOCK TIME (SEC) =          0


          INCREMENT NUMBER   52  AT FREQUENCY (CYCLES/TIME) =   1402.1858    

  NUMBER OF EQUATIONS =    27290     NUMBER OF FLOATING PT. OPERATIONS =  2.49E+10

  USING THE DIRECT SOLVER WITH   8 PROCESSORS

     CHECK POINT   START OF SOLVER    

     CHECK POINT  END OF SOLVER       

       ELAPSED USER TIME (SEC)      =   6.3000    
       ELAPSED SYSTEM TIME (SEC)    =   0.0000    
       ELAPSED TOTAL CPU TIME (SEC) =   6.3000    
       ELAPSED WALLCLOCK TIME (SEC) =          1


          INCREMENT NUMBER   53  AT FREQUENCY (CYCLES/TIME) =   1404.1894    

  NUMBER OF EQUATIONS =    27290     NUMBER OF FLOATING PT. OPERATIONS =  2.49E+10

  USING THE DIRECT SOLVER WITH   8 PROCESSORS

     CHECK POINT   START OF SOLVER    

     CHECK POINT  END OF SOLVER       

       ELAPSED USER TIME (SEC)      =   6.3000    
       ELAPSED SYSTEM TIME (SEC)    =   0.0000    
       ELAPSED TOTAL CPU TIME (SEC) =   6.3000    
       ELAPSED WALLCLOCK TIME (SEC) =          1


          INCREMENT NUMBER   54  AT FREQUENCY (CYCLES/TIME) =   1406.1931    

  NUMBER OF EQUATIONS =    27290     NUMBER OF FLOATING PT. OPERATIONS =  2.49E+10

  USING THE DIRECT SOLVER WITH   8 PROCESSORS

     CHECK POINT   START OF SOLVER    

     CHECK POINT  END OF SOLVER       

       ELAPSED USER TIME (SEC)      =   6.4000    
       ELAPSED SYSTEM TIME (SEC)    =   0.0000    
       ELAPSED TOTAL CPU TIME (SEC) =   6.4000    
       ELAPSED WALLCLOCK TIME (SEC) =          1


          INCREMENT NUMBER   55  AT FREQUENCY (CYCLES/TIME) =   1408.1967    

  NUMBER OF EQUATIONS =    27290     NUMBER OF FLOATING PT. OPERATIONS =  2.49E+10

  USING THE DIRECT SOLVER WITH   8 PROCESSORS

     CHECK POINT   START OF SOLVER    

     CHECK POINT  END OF SOLVER       

       ELAPSED USER TIME (SEC)      =   6.3000    
       ELAPSED SYSTEM TIME (SEC)    =   0.0000    
       ELAPSED TOTAL CPU TIME (SEC) =   6.3000    
       ELAPSED WALLCLOCK TIME (SEC) =          1


          INCREMENT NUMBER   56  AT FREQUENCY (CYCLES/TIME) =   1410.2004    

  NUMBER OF EQUATIONS =    27290     NUMBER OF FLOATING PT. OPERATIONS =  2.49E+10

  USING THE DIRECT SOLVER WITH   8 PROCESSORS

     CHECK POINT   START OF SOLVER    

     CHECK POINT  END OF SOLVER       

       ELAPSED USER TIME (SEC)      =   6.3000    
       ELAPSED SYSTEM TIME (SEC)    =   0.0000    
       ELAPSED TOTAL CPU TIME (SEC) =   6.3000    
       ELAPSED WALLCLOCK TIME (SEC) =          1


          INCREMENT NUMBER   57  AT FREQUENCY (CYCLES/TIME) =   1412.2040    

  NUMBER OF EQUATIONS =    27290     NUMBER OF FLOATING PT. OPERATIONS =  2.49E+10

  USING THE DIRECT SOLVER WITH   8 PROCESSORS

     CHECK POINT   START OF SOLVER    

     CHECK POINT  END OF SOLVER       

       ELAPSED USER TIME (SEC)      =   6.6000    
       ELAPSED SYSTEM TIME (SEC)    =   0.0000    
       ELAPSED TOTAL CPU TIME (SEC) =   6.6000    
       ELAPSED WALLCLOCK TIME (SEC) =          1


          INCREMENT NUMBER   58  AT FREQUENCY (CYCLES/TIME) =   1414.2077    

  NUMBER OF EQUATIONS =    27290     NUMBER OF FLOATING PT. OPERATIONS =  2.49E+10

  USING THE DIRECT SOLVER WITH   8 PROCESSORS

     CHECK POINT   START OF SOLVER    

     CHECK POINT  END OF SOLVER       

       ELAPSED USER TIME (SEC)      =   6.7000    
       ELAPSED SYSTEM TIME (SEC)    =   0.0000    
       ELAPSED TOTAL CPU TIME (SEC) =   6.7000    
       ELAPSED WALLCLOCK TIME (SEC) =          1


          INCREMENT NUMBER   59  AT FREQUENCY (CYCLES/TIME) =   1416.2113    

  NUMBER OF EQUATIONS =    27290     NUMBER OF FLOATING PT. OPERATIONS =  2.49E+10

  USING THE DIRECT SOLVER WITH   8 PROCESSORS

     CHECK POINT   START OF SOLVER    

     CHECK POINT  END OF SOLVER       

       ELAPSED USER TIME (SEC)      =   6.3000    
       ELAPSED SYSTEM TIME (SEC)    =  0.10000    
       ELAPSED TOTAL CPU TIME (SEC) =   6.4000    
       ELAPSED WALLCLOCK TIME (SEC) =          1


          INCREMENT NUMBER   60  AT FREQUENCY (CYCLES/TIME) =   1418.2149    

  NUMBER OF EQUATIONS =    27290     NUMBER OF FLOATING PT. OPERATIONS =  2.49E+10

  USING THE DIRECT SOLVER WITH   8 PROCESSORS

     CHECK POINT   START OF SOLVER    

     CHECK POINT  END OF SOLVER       

       ELAPSED USER TIME (SEC)      =   6.5000    
       ELAPSED SYSTEM TIME (SEC)    =   0.0000    
       ELAPSED TOTAL CPU TIME (SEC) =   6.5000    
       ELAPSED WALLCLOCK TIME (SEC) =          1


          INCREMENT NUMBER   61  AT FREQUENCY (CYCLES/TIME) =   1420.2186    

  NUMBER OF EQUATIONS =    27290     NUMBER OF FLOATING PT. OPERATIONS =  2.49E+10

  USING THE DIRECT SOLVER WITH   8 PROCESSORS

     CHECK POINT   START OF SOLVER    

     CHECK POINT  END OF SOLVER       

       ELAPSED USER TIME (SEC)      =   6.6000    
       ELAPSED SYSTEM TIME (SEC)    =   0.0000    
       ELAPSED TOTAL CPU TIME (SEC) =   6.6000    
       ELAPSED WALLCLOCK TIME (SEC) =          1


          INCREMENT NUMBER   62  AT FREQUENCY (CYCLES/TIME) =   1422.2222    

  NUMBER OF EQUATIONS =    27290     NUMBER OF FLOATING PT. OPERATIONS =  2.49E+10

  USING THE DIRECT SOLVER WITH   8 PROCESSORS

     CHECK POINT   START OF SOLVER    

     CHECK POINT  END OF SOLVER       

       ELAPSED USER TIME (SEC)      =   7.6000    
       ELAPSED SYSTEM TIME (SEC)    =   0.0000    
       ELAPSED TOTAL CPU TIME (SEC) =   7.6000    
       ELAPSED WALLCLOCK TIME (SEC) =          1


          INCREMENT NUMBER   63  AT FREQUENCY (CYCLES/TIME) =   1424.2259    

  NUMBER OF EQUATIONS =    27290     NUMBER OF FLOATING PT. OPERATIONS =  2.49E+10

  USING THE DIRECT SOLVER WITH   8 PROCESSORS

     CHECK POINT   START OF SOLVER    

     CHECK POINT  END OF SOLVER       

       ELAPSED USER TIME (SEC)      =   7.0000    
       ELAPSED SYSTEM TIME (SEC)    =   0.0000    
       ELAPSED TOTAL CPU TIME (SEC) =   7.0000    
       ELAPSED WALLCLOCK TIME (SEC) =          1


          INCREMENT NUMBER   64  AT FREQUENCY (CYCLES/TIME) =   1426.2295    

  NUMBER OF EQUATIONS =    27290     NUMBER OF FLOATING PT. OPERATIONS =  2.49E+10

  USING THE DIRECT SOLVER WITH   8 PROCESSORS

     CHECK POINT   START OF SOLVER    

     CHECK POINT  END OF SOLVER       

       ELAPSED USER TIME (SEC)      =   6.7000    
       ELAPSED SYSTEM TIME (SEC)    =   0.0000    
       ELAPSED TOTAL CPU TIME (SEC) =   6.7000    
       ELAPSED WALLCLOCK TIME (SEC) =          1


          INCREMENT NUMBER   65  AT FREQUENCY (CYCLES/TIME) =   1428.2332    

  NUMBER OF EQUATIONS =    27290     NUMBER OF FLOATING PT. OPERATIONS =  2.49E+10

  USING THE DIRECT SOLVER WITH   8 PROCESSORS

     CHECK POINT   START OF SOLVER    

     CHECK POINT  END OF SOLVER       

       ELAPSED USER TIME (SEC)      =   6.8000    
       ELAPSED SYSTEM TIME (SEC)    =   0.0000    
       ELAPSED TOTAL CPU TIME (SEC) =   6.8000    
       ELAPSED WALLCLOCK TIME (SEC) =          1


          INCREMENT NUMBER   66  AT FREQUENCY (CYCLES/TIME) =   1430.2368    

  NUMBER OF EQUATIONS =    27290     NUMBER OF FLOATING PT. OPERATIONS =  2.49E+10

  USING THE DIRECT SOLVER WITH   8 PROCESSORS

     CHECK POINT   START OF SOLVER    

     CHECK POINT  END OF SOLVER       

       ELAPSED USER TIME (SEC)      =   6.8000    
       ELAPSED SYSTEM TIME (SEC)    =   0.0000    
       ELAPSED TOTAL CPU TIME (SEC) =   6.8000    
       ELAPSED WALLCLOCK TIME (SEC) =          1


          INCREMENT NUMBER   67  AT FREQUENCY (CYCLES/TIME) =   1432.2404    

  NUMBER OF EQUATIONS =    27290     NUMBER OF FLOATING PT. OPERATIONS =  2.49E+10

  USING THE DIRECT SOLVER WITH   8 PROCESSORS

     CHECK POINT   START OF SOLVER    

     CHECK POINT  END OF SOLVER       

       ELAPSED USER TIME (SEC)      =   6.7000    
       ELAPSED SYSTEM TIME (SEC)    =  0.10000    
       ELAPSED TOTAL CPU TIME (SEC) =   6.8000    
       ELAPSED WALLCLOCK TIME (SEC) =          1


          INCREMENT NUMBER   68  AT FREQUENCY (CYCLES/TIME) =   1434.2441    

  NUMBER OF EQUATIONS =    27290     NUMBER OF FLOATING PT. OPERATIONS =  2.49E+10

  USING THE DIRECT SOLVER WITH   8 PROCESSORS

     CHECK POINT   START OF SOLVER    

     CHECK POINT  END OF SOLVER       

       ELAPSED USER TIME (SEC)      =   6.5000    
       ELAPSED SYSTEM TIME (SEC)    =  0.10000    
       ELAPSED TOTAL CPU TIME (SEC) =   6.6000    
       ELAPSED WALLCLOCK TIME (SEC) =          1


          INCREMENT NUMBER   69  AT FREQUENCY (CYCLES/TIME) =   1436.2477    

  NUMBER OF EQUATIONS =    27290     NUMBER OF FLOATING PT. OPERATIONS =  2.49E+10

  USING THE DIRECT SOLVER WITH   8 PROCESSORS

     CHECK POINT   START OF SOLVER    

     CHECK POINT  END OF SOLVER       

       ELAPSED USER TIME (SEC)      =   6.5000    
       ELAPSED SYSTEM TIME (SEC)    =   0.0000    
       ELAPSED TOTAL CPU TIME (SEC) =   6.5000    
       ELAPSED WALLCLOCK TIME (SEC) =          1


          INCREMENT NUMBER   70  AT FREQUENCY (CYCLES/TIME) =   1438.2514    

  NUMBER OF EQUATIONS =    27290     NUMBER OF FLOATING PT. OPERATIONS =  2.49E+10

  USING THE DIRECT SOLVER WITH   8 PROCESSORS

     CHECK POINT   START OF SOLVER    

     CHECK POINT  END OF SOLVER       

       ELAPSED USER TIME (SEC)      =   6.5000    
       ELAPSED SYSTEM TIME (SEC)    =   0.0000    
       ELAPSED TOTAL CPU TIME (SEC) =   6.5000    
       ELAPSED WALLCLOCK TIME (SEC) =          1


          INCREMENT NUMBER   71  AT FREQUENCY (CYCLES/TIME) =   1440.2550    

  NUMBER OF EQUATIONS =    27290     NUMBER OF FLOATING PT. OPERATIONS =  2.49E+10

  USING THE DIRECT SOLVER WITH   8 PROCESSORS

     CHECK POINT   START OF SOLVER    

     CHECK POINT  END OF SOLVER       

       ELAPSED USER TIME (SEC)      =   6.5000    
       ELAPSED SYSTEM TIME (SEC)    =   0.0000    
       ELAPSED TOTAL CPU TIME (SEC) =   6.5000    
       ELAPSED WALLCLOCK TIME (SEC) =          1


          INCREMENT NUMBER   72  AT FREQUENCY (CYCLES/TIME) =   1442.2587    

  NUMBER OF EQUATIONS =    27290     NUMBER OF FLOATING PT. OPERATIONS =  2.49E+10

  USING THE DIRECT SOLVER WITH   8 PROCESSORS

     CHECK POINT   START OF SOLVER    

     CHECK POINT  END OF SOLVER       

       ELAPSED USER TIME (SEC)      =   6.6000    
       ELAPSED SYSTEM TIME (SEC)    =   0.0000    
       ELAPSED TOTAL CPU TIME (SEC) =   6.6000    
       ELAPSED WALLCLOCK TIME (SEC) =          1


          INCREMENT NUMBER   73  AT FREQUENCY (CYCLES/TIME) =   1444.2623    

  NUMBER OF EQUATIONS =    27290     NUMBER OF FLOATING PT. OPERATIONS =  2.49E+10

  USING THE DIRECT SOLVER WITH   8 PROCESSORS

     CHECK POINT   START OF SOLVER    

     CHECK POINT  END OF SOLVER       

       ELAPSED USER TIME (SEC)      =   6.4000    
       ELAPSED SYSTEM TIME (SEC)    =   0.0000    
       ELAPSED TOTAL CPU TIME (SEC) =   6.4000    
       ELAPSED WALLCLOCK TIME (SEC) =          1


          INCREMENT NUMBER   74  AT FREQUENCY (CYCLES/TIME) =   1446.2659    

  NUMBER OF EQUATIONS =    27290     NUMBER OF FLOATING PT. OPERATIONS =  2.49E+10

  USING THE DIRECT SOLVER WITH   8 PROCESSORS

     CHECK POINT   START OF SOLVER    

     CHECK POINT  END OF SOLVER       

       ELAPSED USER TIME (SEC)      =   6.7000    
       ELAPSED SYSTEM TIME (SEC)    =   0.0000    
       ELAPSED TOTAL CPU TIME (SEC) =   6.7000    
       ELAPSED WALLCLOCK TIME (SEC) =          0


          INCREMENT NUMBER   75  AT FREQUENCY (CYCLES/TIME) =   1448.2696    

  NUMBER OF EQUATIONS =    27290     NUMBER OF FLOATING PT. OPERATIONS =  2.49E+10

  USING THE DIRECT SOLVER WITH   8 PROCESSORS

     CHECK POINT   START OF SOLVER    

     CHECK POINT  END OF SOLVER       

       ELAPSED USER TIME (SEC)      =   6.4000    
       ELAPSED SYSTEM TIME (SEC)    =   0.0000    
       ELAPSED TOTAL CPU TIME (SEC) =   6.4000    
       ELAPSED WALLCLOCK TIME (SEC) =          0


          INCREMENT NUMBER   76  AT FREQUENCY (CYCLES/TIME) =   1450.2732    

  NUMBER OF EQUATIONS =    27290     NUMBER OF FLOATING PT. OPERATIONS =  2.49E+10

  USING THE DIRECT SOLVER WITH   8 PROCESSORS

     CHECK POINT   START OF SOLVER    

     CHECK POINT  END OF SOLVER       

       ELAPSED USER TIME (SEC)      =   6.5000    
       ELAPSED SYSTEM TIME (SEC)    =   0.0000    
       ELAPSED TOTAL CPU TIME (SEC) =   6.5000    
       ELAPSED WALLCLOCK TIME (SEC) =          0


          INCREMENT NUMBER   77  AT FREQUENCY (CYCLES/TIME) =   1452.2769    

  NUMBER OF EQUATIONS =    27290     NUMBER OF FLOATING PT. OPERATIONS =  2.49E+10

  USING THE DIRECT SOLVER WITH   8 PROCESSORS

     CHECK POINT   START OF SOLVER    

     CHECK POINT  END OF SOLVER       

       ELAPSED USER TIME (SEC)      =   6.4000    
       ELAPSED SYSTEM TIME (SEC)    =   0.0000    
       ELAPSED TOTAL CPU TIME (SEC) =   6.4000    
       ELAPSED WALLCLOCK TIME (SEC) =          1


          INCREMENT NUMBER   78  AT FREQUENCY (CYCLES/TIME) =   1454.2805    

  NUMBER OF EQUATIONS =    27290     NUMBER OF FLOATING PT. OPERATIONS =  2.49E+10

  USING THE DIRECT SOLVER WITH   8 PROCESSORS

     CHECK POINT   START OF SOLVER    

     CHECK POINT  END OF SOLVER       

       ELAPSED USER TIME (SEC)      =   6.5000    
       ELAPSED SYSTEM TIME (SEC)    =   0.0000    
       ELAPSED TOTAL CPU TIME (SEC) =   6.5000    
       ELAPSED WALLCLOCK TIME (SEC) =          1


          INCREMENT NUMBER   79  AT FREQUENCY (CYCLES/TIME) =   1456.2842    

  NUMBER OF EQUATIONS =    27290     NUMBER OF FLOATING PT. OPERATIONS =  2.49E+10

  USING THE DIRECT SOLVER WITH   8 PROCESSORS

     CHECK POINT   START OF SOLVER    

     CHECK POINT  END OF SOLVER       

       ELAPSED USER TIME (SEC)      =   6.3000    
       ELAPSED SYSTEM TIME (SEC)    =   0.0000    
       ELAPSED TOTAL CPU TIME (SEC) =   6.3000    
       ELAPSED WALLCLOCK TIME (SEC) =          1


          INCREMENT NUMBER   80  AT FREQUENCY (CYCLES/TIME) =   1458.2878    

  NUMBER OF EQUATIONS =    27290     NUMBER OF FLOATING PT. OPERATIONS =  2.49E+10

  USING THE DIRECT SOLVER WITH   8 PROCESSORS

     CHECK POINT   START OF SOLVER    

     CHECK POINT  END OF SOLVER       

       ELAPSED USER TIME (SEC)      =   6.8000    
       ELAPSED SYSTEM TIME (SEC)    =   0.0000    
       ELAPSED TOTAL CPU TIME (SEC) =   6.8000    
       ELAPSED WALLCLOCK TIME (SEC) =          1


          INCREMENT NUMBER   81  AT FREQUENCY (CYCLES/TIME) =   1460.2914    

  NUMBER OF EQUATIONS =    27290     NUMBER OF FLOATING PT. OPERATIONS =  2.49E+10

  USING THE DIRECT SOLVER WITH   8 PROCESSORS

     CHECK POINT   START OF SOLVER    

     CHECK POINT  END OF SOLVER       

       ELAPSED USER TIME (SEC)      =   6.4000    
       ELAPSED SYSTEM TIME (SEC)    =   0.0000    
       ELAPSED TOTAL CPU TIME (SEC) =   6.4000    
       ELAPSED WALLCLOCK TIME (SEC) =          1


          INCREMENT NUMBER   82  AT FREQUENCY (CYCLES/TIME) =   1462.2951    

  NUMBER OF EQUATIONS =    27290     NUMBER OF FLOATING PT. OPERATIONS =  2.49E+10

  USING THE DIRECT SOLVER WITH   8 PROCESSORS

     CHECK POINT   START OF SOLVER    

     CHECK POINT  END OF SOLVER       

       ELAPSED USER TIME (SEC)      =   6.4000    
       ELAPSED SYSTEM TIME (SEC)    =   0.0000    
       ELAPSED TOTAL CPU TIME (SEC) =   6.4000    
       ELAPSED WALLCLOCK TIME (SEC) =          1


          INCREMENT NUMBER   83  AT FREQUENCY (CYCLES/TIME) =   1464.2987    

  NUMBER OF EQUATIONS =    27290     NUMBER OF FLOATING PT. OPERATIONS =  2.49E+10

  USING THE DIRECT SOLVER WITH   8 PROCESSORS

     CHECK POINT   START OF SOLVER    

     CHECK POINT  END OF SOLVER       

       ELAPSED USER TIME (SEC)      =   6.4000    
       ELAPSED SYSTEM TIME (SEC)    =   0.0000    
       ELAPSED TOTAL CPU TIME (SEC) =   6.4000    
       ELAPSED WALLCLOCK TIME (SEC) =          1


          INCREMENT NUMBER   84  AT FREQUENCY (CYCLES/TIME) =   1466.3024    

  NUMBER OF EQUATIONS =    27290     NUMBER OF FLOATING PT. OPERATIONS =  2.49E+10

  USING THE DIRECT SOLVER WITH   8 PROCESSORS

     CHECK POINT   START OF SOLVER    

     CHECK POINT  END OF SOLVER       

       ELAPSED USER TIME (SEC)      =   6.4000    
       ELAPSED SYSTEM TIME (SEC)    =   0.0000    
       ELAPSED TOTAL CPU TIME (SEC) =   6.4000    
       ELAPSED WALLCLOCK TIME (SEC) =          1
 

 ***WARNING: THE SYSTEM MATRIX HAS 1 NEGATIVE EIGENVALUES.

     IN A DIRECT-SOLUTION STEADY-STATE DYNAMIC ANALYSIS, NEGATIVE
     EIGENVALUES ARE EXPECTED. A STATIC ANALYSIS CAN BE USED TO VERIFY THAT THE SYSTEM IS STABLE.

     NEGATIVE EIGENVALUES MEAN THAT THE SYSTEM MATRIX IS NOT 
     POSITIVE DEFINITE:
     FOR EXAMPLE, A BIFURCATION (BUCKLING) LOAD MAY HAVE BEEN EXCEEDED.


          INCREMENT NUMBER   85  AT FREQUENCY (CYCLES/TIME) =   1468.3060    

  NUMBER OF EQUATIONS =    27290     NUMBER OF FLOATING PT. OPERATIONS =  2.49E+10

  USING THE DIRECT SOLVER WITH   8 PROCESSORS

     CHECK POINT   START OF SOLVER    

     CHECK POINT  END OF SOLVER       

       ELAPSED USER TIME (SEC)      =   6.3000    
       ELAPSED SYSTEM TIME (SEC)    =   0.0000    
       ELAPSED TOTAL CPU TIME (SEC) =   6.3000    
       ELAPSED WALLCLOCK TIME (SEC) =          1
 

 ***WARNING: THE SYSTEM MATRIX HAS 1 NEGATIVE EIGENVALUES.
             EXPLANATIONS ARE SUGGESTED AFTER THE FIRST OCCURRENCE OF THIS MESSAGE.


          INCREMENT NUMBER   86  AT FREQUENCY (CYCLES/TIME) =   1470.3097    

  NUMBER OF EQUATIONS =    27290     NUMBER OF FLOATING PT. OPERATIONS =  2.49E+10

  USING THE DIRECT SOLVER WITH   8 PROCESSORS

     CHECK POINT   START OF SOLVER    

     CHECK POINT  END OF SOLVER       

       ELAPSED USER TIME (SEC)      =   6.5000    
       ELAPSED SYSTEM TIME (SEC)    =   0.0000    
       ELAPSED TOTAL CPU TIME (SEC) =   6.5000    
       ELAPSED WALLCLOCK TIME (SEC) =          0
 

 ***WARNING: THE SYSTEM MATRIX HAS 1 NEGATIVE EIGENVALUES.
             EXPLANATIONS ARE SUGGESTED AFTER THE FIRST OCCURRENCE OF THIS MESSAGE.


          INCREMENT NUMBER   87  AT FREQUENCY (CYCLES/TIME) =   1472.3133    

  NUMBER OF EQUATIONS =    27290     NUMBER OF FLOATING PT. OPERATIONS =  2.49E+10

  USING THE DIRECT SOLVER WITH   8 PROCESSORS

     CHECK POINT   START OF SOLVER    

     CHECK POINT  END OF SOLVER       

       ELAPSED USER TIME (SEC)      =   6.5000    
       ELAPSED SYSTEM TIME (SEC)    =   0.0000    
       ELAPSED TOTAL CPU TIME (SEC) =   6.5000    
       ELAPSED WALLCLOCK TIME (SEC) =          1
 

 ***WARNING: THE SYSTEM MATRIX HAS 1 NEGATIVE EIGENVALUES.
             EXPLANATIONS ARE SUGGESTED AFTER THE FIRST OCCURRENCE OF THIS MESSAGE.


          INCREMENT NUMBER   88  AT FREQUENCY (CYCLES/TIME) =   1474.3169    

  NUMBER OF EQUATIONS =    27290     NUMBER OF FLOATING PT. OPERATIONS =  2.49E+10

  USING THE DIRECT SOLVER WITH   8 PROCESSORS

     CHECK POINT   START OF SOLVER    

     CHECK POINT  END OF SOLVER       

       ELAPSED USER TIME (SEC)      =   6.2000    
       ELAPSED SYSTEM TIME (SEC)    =   0.0000    
       ELAPSED TOTAL CPU TIME (SEC) =   6.2000    
       ELAPSED WALLCLOCK TIME (SEC) =          1
 

 ***WARNING: THE SYSTEM MATRIX HAS 1 NEGATIVE EIGENVALUES.
             EXPLANATIONS ARE SUGGESTED AFTER THE FIRST OCCURRENCE OF THIS MESSAGE.


          INCREMENT NUMBER   89  AT FREQUENCY (CYCLES/TIME) =   1476.3206    

  NUMBER OF EQUATIONS =    27290     NUMBER OF FLOATING PT. OPERATIONS =  2.49E+10

  USING THE DIRECT SOLVER WITH   8 PROCESSORS

     CHECK POINT   START OF SOLVER    

     CHECK POINT  END OF SOLVER       

       ELAPSED USER TIME (SEC)      =   6.7000    
       ELAPSED SYSTEM TIME (SEC)    =  0.10000    
       ELAPSED TOTAL CPU TIME (SEC) =   6.8000    
       ELAPSED WALLCLOCK TIME (SEC) =          1
 

 ***WARNING: THE SYSTEM MATRIX HAS 1 NEGATIVE EIGENVALUES.
             EXPLANATIONS ARE SUGGESTED AFTER THE FIRST OCCURRENCE OF THIS MESSAGE.


          INCREMENT NUMBER   90  AT FREQUENCY (CYCLES/TIME) =   1478.3242    

  NUMBER OF EQUATIONS =    27290     NUMBER OF FLOATING PT. OPERATIONS =  2.49E+10

  USING THE DIRECT SOLVER WITH   8 PROCESSORS

     CHECK POINT   START OF SOLVER    

     CHECK POINT  END OF SOLVER       

       ELAPSED USER TIME (SEC)      =   7.4000    
       ELAPSED SYSTEM TIME (SEC)    =   0.0000    
       ELAPSED TOTAL CPU TIME (SEC) =   7.4000    
       ELAPSED WALLCLOCK TIME (SEC) =          1
 

 ***WARNING: THE SYSTEM MATRIX HAS 1 NEGATIVE EIGENVALUES.
             EXPLANATIONS ARE SUGGESTED AFTER THE FIRST OCCURRENCE OF THIS MESSAGE.


          INCREMENT NUMBER   91  AT FREQUENCY (CYCLES/TIME) =   1480.3279    

  NUMBER OF EQUATIONS =    27290     NUMBER OF FLOATING PT. OPERATIONS =  2.49E+10

  USING THE DIRECT SOLVER WITH   8 PROCESSORS

     CHECK POINT   START OF SOLVER    

     CHECK POINT  END OF SOLVER       

       ELAPSED USER TIME (SEC)      =   6.3000    
       ELAPSED SYSTEM TIME (SEC)    =  0.10000    
       ELAPSED TOTAL CPU TIME (SEC) =   6.4000    
       ELAPSED WALLCLOCK TIME (SEC) =          0
 

 ***WARNING: THE SYSTEM MATRIX HAS 1 NEGATIVE EIGENVALUES.
             EXPLANATIONS ARE SUGGESTED AFTER THE FIRST OCCURRENCE OF THIS MESSAGE.


          INCREMENT NUMBER   92  AT FREQUENCY (CYCLES/TIME) =   1482.3315    

  NUMBER OF EQUATIONS =    27290     NUMBER OF FLOATING PT. OPERATIONS =  2.49E+10

  USING THE DIRECT SOLVER WITH   8 PROCESSORS

     CHECK POINT   START OF SOLVER    

     CHECK POINT  END OF SOLVER       

       ELAPSED USER TIME (SEC)      =   6.4000    
       ELAPSED SYSTEM TIME (SEC)    =   0.0000    
       ELAPSED TOTAL CPU TIME (SEC) =   6.4000    
       ELAPSED WALLCLOCK TIME (SEC) =          1
 

 ***WARNING: THE SYSTEM MATRIX HAS 1 NEGATIVE EIGENVALUES.
             EXPLANATIONS ARE SUGGESTED AFTER THE FIRST OCCURRENCE OF THIS MESSAGE.


          INCREMENT NUMBER   93  AT FREQUENCY (CYCLES/TIME) =   1484.3352    

  NUMBER OF EQUATIONS =    27290     NUMBER OF FLOATING PT. OPERATIONS =  2.49E+10

  USING THE DIRECT SOLVER WITH   8 PROCESSORS

     CHECK POINT   START OF SOLVER    

     CHECK POINT  END OF SOLVER       

       ELAPSED USER TIME (SEC)      =   6.3000    
       ELAPSED SYSTEM TIME (SEC)    =   0.0000    
       ELAPSED TOTAL CPU TIME (SEC) =   6.3000    
       ELAPSED WALLCLOCK TIME (SEC) =          1
 

 ***WARNING: THE SYSTEM MATRIX HAS 1 NEGATIVE EIGENVALUES.
             EXPLANATIONS ARE SUGGESTED AFTER THE FIRST OCCURRENCE OF THIS MESSAGE.


          INCREMENT NUMBER   94  AT FREQUENCY (CYCLES/TIME) =   1486.3388    

  NUMBER OF EQUATIONS =    27290     NUMBER OF FLOATING PT. OPERATIONS =  2.49E+10

  USING THE DIRECT SOLVER WITH   8 PROCESSORS

     CHECK POINT   START OF SOLVER    

     CHECK POINT  END OF SOLVER       

       ELAPSED USER TIME (SEC)      =   6.7000    
       ELAPSED SYSTEM TIME (SEC)    =   0.0000    
       ELAPSED TOTAL CPU TIME (SEC) =   6.7000    
       ELAPSED WALLCLOCK TIME (SEC) =          1
 

 ***WARNING: THE SYSTEM MATRIX HAS 1 NEGATIVE EIGENVALUES.
             EXPLANATIONS ARE SUGGESTED AFTER THE FIRST OCCURRENCE OF THIS MESSAGE.


          INCREMENT NUMBER   95  AT FREQUENCY (CYCLES/TIME) =   1488.3424    

  NUMBER OF EQUATIONS =    27290     NUMBER OF FLOATING PT. OPERATIONS =  2.49E+10

  USING THE DIRECT SOLVER WITH   8 PROCESSORS

     CHECK POINT   START OF SOLVER    

     CHECK POINT  END OF SOLVER       

       ELAPSED USER TIME (SEC)      =   6.2000    
       ELAPSED SYSTEM TIME (SEC)    =   0.0000    
       ELAPSED TOTAL CPU TIME (SEC) =   6.2000    
       ELAPSED WALLCLOCK TIME (SEC) =          1
 

 ***WARNING: THE SYSTEM MATRIX HAS 1 NEGATIVE EIGENVALUES.
             EXPLANATIONS ARE SUGGESTED AFTER THE FIRST OCCURRENCE OF THIS MESSAGE.


          INCREMENT NUMBER   96  AT FREQUENCY (CYCLES/TIME) =   1490.3461    

  NUMBER OF EQUATIONS =    27290     NUMBER OF FLOATING PT. OPERATIONS =  2.49E+10

  USING THE DIRECT SOLVER WITH   8 PROCESSORS

     CHECK POINT   START OF SOLVER    

     CHECK POINT  END OF SOLVER       

       ELAPSED USER TIME (SEC)      =   6.7000    
       ELAPSED SYSTEM TIME (SEC)    =   0.0000    
       ELAPSED TOTAL CPU TIME (SEC) =   6.7000    
       ELAPSED WALLCLOCK TIME (SEC) =          1
 

 ***WARNING: THE SYSTEM MATRIX HAS 1 NEGATIVE EIGENVALUES.
             EXPLANATIONS ARE SUGGESTED AFTER THE FIRST OCCURRENCE OF THIS MESSAGE.


          INCREMENT NUMBER   97  AT FREQUENCY (CYCLES/TIME) =   1492.3497    

  NUMBER OF EQUATIONS =    27290     NUMBER OF FLOATING PT. OPERATIONS =  2.49E+10

  USING THE DIRECT SOLVER WITH   8 PROCESSORS

     CHECK POINT   START OF SOLVER    

     CHECK POINT  END OF SOLVER       

       ELAPSED USER TIME (SEC)      =   6.4000    
       ELAPSED SYSTEM TIME (SEC)    =  0.10000    
       ELAPSED TOTAL CPU TIME (SEC) =   6.5000    
       ELAPSED WALLCLOCK TIME (SEC) =          1
 

 ***WARNING: THE SYSTEM MATRIX HAS 1 NEGATIVE EIGENVALUES.
             EXPLANATIONS ARE SUGGESTED AFTER THE FIRST OCCURRENCE OF THIS MESSAGE.


          INCREMENT NUMBER   98  AT FREQUENCY (CYCLES/TIME) =   1494.3534    

  NUMBER OF EQUATIONS =    27290     NUMBER OF FLOATING PT. OPERATIONS =  2.49E+10

  USING THE DIRECT SOLVER WITH   8 PROCESSORS

     CHECK POINT   START OF SOLVER    

     CHECK POINT  END OF SOLVER       

       ELAPSED USER TIME (SEC)      =   6.2000    
       ELAPSED SYSTEM TIME (SEC)    =   0.0000    
       ELAPSED TOTAL CPU TIME (SEC) =   6.2000    
       ELAPSED WALLCLOCK TIME (SEC) =          1
 

 ***WARNING: THE SYSTEM MATRIX HAS 1 NEGATIVE EIGENVALUES.
             EXPLANATIONS ARE SUGGESTED AFTER THE FIRST OCCURRENCE OF THIS MESSAGE.


          INCREMENT NUMBER   99  AT FREQUENCY (CYCLES/TIME) =   1496.3570    

  NUMBER OF EQUATIONS =    27290     NUMBER OF FLOATING PT. OPERATIONS =  2.49E+10

  USING THE DIRECT SOLVER WITH   8 PROCESSORS

     CHECK POINT   START OF SOLVER    

     CHECK POINT  END OF SOLVER       

       ELAPSED USER TIME (SEC)      =   6.2000    
       ELAPSED SYSTEM TIME (SEC)    =   0.0000    
       ELAPSED TOTAL CPU TIME (SEC) =   6.2000    
       ELAPSED WALLCLOCK TIME (SEC) =          1
 

 ***WARNING: THE SYSTEM MATRIX HAS 1 NEGATIVE EIGENVALUES.
             EXPLANATIONS ARE SUGGESTED AFTER THE FIRST OCCURRENCE OF THIS MESSAGE.


          INCREMENT NUMBER  100  AT FREQUENCY (CYCLES/TIME) =   1498.3607    

  NUMBER OF EQUATIONS =    27290     NUMBER OF FLOATING PT. OPERATIONS =  2.49E+10

  USING THE DIRECT SOLVER WITH   8 PROCESSORS

     CHECK POINT   START OF SOLVER    

     CHECK POINT  END OF SOLVER       

       ELAPSED USER TIME (SEC)      =   6.5000    
       ELAPSED SYSTEM TIME (SEC)    =   0.0000    
       ELAPSED TOTAL CPU TIME (SEC) =   6.5000    
       ELAPSED WALLCLOCK TIME (SEC) =          1
 

 ***WARNING: THE SYSTEM MATRIX HAS 1 NEGATIVE EIGENVALUES.
             EXPLANATIONS ARE SUGGESTED AFTER THE FIRST OCCURRENCE OF THIS MESSAGE.


          INCREMENT NUMBER  101  AT FREQUENCY (CYCLES/TIME) =   1500.3643    

  NUMBER OF EQUATIONS =    27290     NUMBER OF FLOATING PT. OPERATIONS =  2.49E+10

  USING THE DIRECT SOLVER WITH   8 PROCESSORS

     CHECK POINT   START OF SOLVER    

     CHECK POINT  END OF SOLVER       

       ELAPSED USER TIME (SEC)      =   6.4000    
       ELAPSED SYSTEM TIME (SEC)    =   0.0000    
       ELAPSED TOTAL CPU TIME (SEC) =   6.4000    
       ELAPSED WALLCLOCK TIME (SEC) =          1
 

 ***WARNING: THE SYSTEM MATRIX HAS 1 NEGATIVE EIGENVALUES.
             EXPLANATIONS ARE SUGGESTED AFTER THE FIRST OCCURRENCE OF THIS MESSAGE.


          INCREMENT NUMBER  102  AT FREQUENCY (CYCLES/TIME) =   1502.3679    

  NUMBER OF EQUATIONS =    27290     NUMBER OF FLOATING PT. OPERATIONS =  2.49E+10

  USING THE DIRECT SOLVER WITH   8 PROCESSORS

     CHECK POINT   START OF SOLVER    

     CHECK POINT  END OF SOLVER       

       ELAPSED USER TIME (SEC)      =   6.5000    
       ELAPSED SYSTEM TIME (SEC)    =  0.10000    
       ELAPSED TOTAL CPU TIME (SEC) =   6.6000    
       ELAPSED WALLCLOCK TIME (SEC) =          1
 

 ***WARNING: THE SYSTEM MATRIX HAS 1 NEGATIVE EIGENVALUES.
             EXPLANATIONS ARE SUGGESTED AFTER THE FIRST OCCURRENCE OF THIS MESSAGE.


          INCREMENT NUMBER  103  AT FREQUENCY (CYCLES/TIME) =   1504.3716    

  NUMBER OF EQUATIONS =    27290     NUMBER OF FLOATING PT. OPERATIONS =  2.49E+10

  USING THE DIRECT SOLVER WITH   8 PROCESSORS

     CHECK POINT   START OF SOLVER    

     CHECK POINT  END OF SOLVER       

       ELAPSED USER TIME (SEC)      =   6.5000    
       ELAPSED SYSTEM TIME (SEC)    =   0.0000    
       ELAPSED TOTAL CPU TIME (SEC) =   6.5000    
       ELAPSED WALLCLOCK TIME (SEC) =          1
 

 ***WARNING: THE SYSTEM MATRIX HAS 1 NEGATIVE EIGENVALUES.
             EXPLANATIONS ARE SUGGESTED AFTER THE FIRST OCCURRENCE OF THIS MESSAGE.


          INCREMENT NUMBER  104  AT FREQUENCY (CYCLES/TIME) =   1506.3752    

  NUMBER OF EQUATIONS =    27290     NUMBER OF FLOATING PT. OPERATIONS =  2.49E+10

  USING THE DIRECT SOLVER WITH   8 PROCESSORS

     CHECK POINT   START OF SOLVER    

     CHECK POINT  END OF SOLVER       

       ELAPSED USER TIME (SEC)      =   6.6000    
       ELAPSED SYSTEM TIME (SEC)    =   0.0000    
       ELAPSED TOTAL CPU TIME (SEC) =   6.6000    
       ELAPSED WALLCLOCK TIME (SEC) =          1
 

 ***WARNING: THE SYSTEM MATRIX HAS 1 NEGATIVE EIGENVALUES.
             EXPLANATIONS ARE SUGGESTED AFTER THE FIRST OCCURRENCE OF THIS MESSAGE.


          INCREMENT NUMBER  105  AT FREQUENCY (CYCLES/TIME) =   1508.3789    

  NUMBER OF EQUATIONS =    27290     NUMBER OF FLOATING PT. OPERATIONS =  2.49E+10

  USING THE DIRECT SOLVER WITH   8 PROCESSORS

     CHECK POINT   START OF SOLVER    

     CHECK POINT  END OF SOLVER       

       ELAPSED USER TIME (SEC)      =   6.3000    
       ELAPSED SYSTEM TIME (SEC)    =   0.0000    
       ELAPSED TOTAL CPU TIME (SEC) =   6.3000    
       ELAPSED WALLCLOCK TIME (SEC) =          0
 

 ***WARNING: THE SYSTEM MATRIX HAS 1 NEGATIVE EIGENVALUES.
             EXPLANATIONS ARE SUGGESTED AFTER THE FIRST OCCURRENCE OF THIS MESSAGE.


          INCREMENT NUMBER  106  AT FREQUENCY (CYCLES/TIME) =   1510.3825    

  NUMBER OF EQUATIONS =    27290     NUMBER OF FLOATING PT. OPERATIONS =  2.49E+10

  USING THE DIRECT SOLVER WITH   8 PROCESSORS

     CHECK POINT   START OF SOLVER    

     CHECK POINT  END OF SOLVER       

       ELAPSED USER TIME (SEC)      =   6.4000    
       ELAPSED SYSTEM TIME (SEC)    =   0.0000    
       ELAPSED TOTAL CPU TIME (SEC) =   6.4000    
       ELAPSED WALLCLOCK TIME (SEC) =          1
 

 ***WARNING: THE SYSTEM MATRIX HAS 1 NEGATIVE EIGENVALUES.
             EXPLANATIONS ARE SUGGESTED AFTER THE FIRST OCCURRENCE OF THIS MESSAGE.


          INCREMENT NUMBER  107  AT FREQUENCY (CYCLES/TIME) =   1512.3862    

  NUMBER OF EQUATIONS =    27290     NUMBER OF FLOATING PT. OPERATIONS =  2.49E+10

  USING THE DIRECT SOLVER WITH   8 PROCESSORS

     CHECK POINT   START OF SOLVER    

     CHECK POINT  END OF SOLVER       

       ELAPSED USER TIME (SEC)      =   6.5000    
       ELAPSED SYSTEM TIME (SEC)    =   0.0000    
       ELAPSED TOTAL CPU TIME (SEC) =   6.5000    
       ELAPSED WALLCLOCK TIME (SEC) =          1
 

 ***WARNING: THE SYSTEM MATRIX HAS 1 NEGATIVE EIGENVALUES.
             EXPLANATIONS ARE SUGGESTED AFTER THE FIRST OCCURRENCE OF THIS MESSAGE.


          INCREMENT NUMBER  108  AT FREQUENCY (CYCLES/TIME) =   1514.3898    

  NUMBER OF EQUATIONS =    27290     NUMBER OF FLOATING PT. OPERATIONS =  2.49E+10

  USING THE DIRECT SOLVER WITH   8 PROCESSORS

     CHECK POINT   START OF SOLVER    

     CHECK POINT  END OF SOLVER       

       ELAPSED USER TIME (SEC)      =   6.6000    
       ELAPSED SYSTEM TIME (SEC)    =  0.10000    
       ELAPSED TOTAL CPU TIME (SEC) =   6.7000    
       ELAPSED WALLCLOCK TIME (SEC) =          1
 

 ***WARNING: THE SYSTEM MATRIX HAS 1 NEGATIVE EIGENVALUES.
             EXPLANATIONS ARE SUGGESTED AFTER THE FIRST OCCURRENCE OF THIS MESSAGE.


          INCREMENT NUMBER  109  AT FREQUENCY (CYCLES/TIME) =   1516.3934    

  NUMBER OF EQUATIONS =    27290     NUMBER OF FLOATING PT. OPERATIONS =  2.49E+10

  USING THE DIRECT SOLVER WITH   8 PROCESSORS

     CHECK POINT   START OF SOLVER    

     CHECK POINT  END OF SOLVER       

       ELAPSED USER TIME (SEC)      =   6.5000    
       ELAPSED SYSTEM TIME (SEC)    =   0.0000    
       ELAPSED TOTAL CPU TIME (SEC) =   6.5000    
       ELAPSED WALLCLOCK TIME (SEC) =          1
 

 ***WARNING: THE SYSTEM MATRIX HAS 1 NEGATIVE EIGENVALUES.
             EXPLANATIONS ARE SUGGESTED AFTER THE FIRST OCCURRENCE OF THIS MESSAGE.


          INCREMENT NUMBER  110  AT FREQUENCY (CYCLES/TIME) =   1518.3971    

  NUMBER OF EQUATIONS =    27290     NUMBER OF FLOATING PT. OPERATIONS =  2.49E+10

  USING THE DIRECT SOLVER WITH   8 PROCESSORS

     CHECK POINT   START OF SOLVER    

     CHECK POINT  END OF SOLVER       

       ELAPSED USER TIME (SEC)      =   6.6000    
       ELAPSED SYSTEM TIME (SEC)    =   0.0000    
       ELAPSED TOTAL CPU TIME (SEC) =   6.6000    
       ELAPSED WALLCLOCK TIME (SEC) =          1
 

 ***WARNING: THE SYSTEM MATRIX HAS 1 NEGATIVE EIGENVALUES.
             EXPLANATIONS ARE SUGGESTED AFTER THE FIRST OCCURRENCE OF THIS MESSAGE.


          INCREMENT NUMBER  111  AT FREQUENCY (CYCLES/TIME) =   1520.4007    

  NUMBER OF EQUATIONS =    27290     NUMBER OF FLOATING PT. OPERATIONS =  2.49E+10

  USING THE DIRECT SOLVER WITH   8 PROCESSORS

     CHECK POINT   START OF SOLVER    

     CHECK POINT  END OF SOLVER       

       ELAPSED USER TIME (SEC)      =   6.3000    
       ELAPSED SYSTEM TIME (SEC)    =  0.10000    
       ELAPSED TOTAL CPU TIME (SEC) =   6.4000    
       ELAPSED WALLCLOCK TIME (SEC) =          1
 

 ***WARNING: THE SYSTEM MATRIX HAS 1 NEGATIVE EIGENVALUES.
             EXPLANATIONS ARE SUGGESTED AFTER THE FIRST OCCURRENCE OF THIS MESSAGE.


          INCREMENT NUMBER  112  AT FREQUENCY (CYCLES/TIME) =   1522.4044    

  NUMBER OF EQUATIONS =    27290     NUMBER OF FLOATING PT. OPERATIONS =  2.49E+10

  USING THE DIRECT SOLVER WITH   8 PROCESSORS

     CHECK POINT   START OF SOLVER    

     CHECK POINT  END OF SOLVER       

       ELAPSED USER TIME (SEC)      =   6.4000    
       ELAPSED SYSTEM TIME (SEC)    =   0.0000    
       ELAPSED TOTAL CPU TIME (SEC) =   6.4000    
       ELAPSED WALLCLOCK TIME (SEC) =          1
 

 ***WARNING: THE SYSTEM MATRIX HAS 1 NEGATIVE EIGENVALUES.
             EXPLANATIONS ARE SUGGESTED AFTER THE FIRST OCCURRENCE OF THIS MESSAGE.


          INCREMENT NUMBER  113  AT FREQUENCY (CYCLES/TIME) =   1524.4080    

  NUMBER OF EQUATIONS =    27290     NUMBER OF FLOATING PT. OPERATIONS =  2.49E+10

  USING THE DIRECT SOLVER WITH   8 PROCESSORS

     CHECK POINT   START OF SOLVER    

     CHECK POINT  END OF SOLVER       

       ELAPSED USER TIME (SEC)      =   6.6000    
       ELAPSED SYSTEM TIME (SEC)    =   0.0000    
       ELAPSED TOTAL CPU TIME (SEC) =   6.6000    
       ELAPSED WALLCLOCK TIME (SEC) =          1
 

 ***WARNING: THE SYSTEM MATRIX HAS 1 NEGATIVE EIGENVALUES.
             EXPLANATIONS ARE SUGGESTED AFTER THE FIRST OCCURRENCE OF THIS MESSAGE.


          INCREMENT NUMBER  114  AT FREQUENCY (CYCLES/TIME) =   1526.4117    

  NUMBER OF EQUATIONS =    27290     NUMBER OF FLOATING PT. OPERATIONS =  2.49E+10

  USING THE DIRECT SOLVER WITH   8 PROCESSORS

     CHECK POINT   START OF SOLVER    

     CHECK POINT  END OF SOLVER       

       ELAPSED USER TIME (SEC)      =   6.5000    
       ELAPSED SYSTEM TIME (SEC)    =   0.0000    
       ELAPSED TOTAL CPU TIME (SEC) =   6.5000    
       ELAPSED WALLCLOCK TIME (SEC) =          1
 

 ***WARNING: THE SYSTEM MATRIX HAS 1 NEGATIVE EIGENVALUES.
             EXPLANATIONS ARE SUGGESTED AFTER THE FIRST OCCURRENCE OF THIS MESSAGE.


          INCREMENT NUMBER  115  AT FREQUENCY (CYCLES/TIME) =   1528.4153    

  NUMBER OF EQUATIONS =    27290     NUMBER OF FLOATING PT. OPERATIONS =  2.49E+10

  USING THE DIRECT SOLVER WITH   8 PROCESSORS

     CHECK POINT   START OF SOLVER    

     CHECK POINT  END OF SOLVER       

       ELAPSED USER TIME (SEC)      =   6.7000    
       ELAPSED SYSTEM TIME (SEC)    =   0.0000    
       ELAPSED TOTAL CPU TIME (SEC) =   6.7000    
       ELAPSED WALLCLOCK TIME (SEC) =          1
 

 ***WARNING: THE SYSTEM MATRIX HAS 1 NEGATIVE EIGENVALUES.
             EXPLANATIONS ARE SUGGESTED AFTER THE FIRST OCCURRENCE OF THIS MESSAGE.


          INCREMENT NUMBER  116  AT FREQUENCY (CYCLES/TIME) =   1530.4189    

  NUMBER OF EQUATIONS =    27290     NUMBER OF FLOATING PT. OPERATIONS =  2.49E+10

  USING THE DIRECT SOLVER WITH   8 PROCESSORS

     CHECK POINT   START OF SOLVER    

     CHECK POINT  END OF SOLVER       

       ELAPSED USER TIME (SEC)      =   6.7000    
       ELAPSED SYSTEM TIME (SEC)    =   0.0000    
       ELAPSED TOTAL CPU TIME (SEC) =   6.7000    
       ELAPSED WALLCLOCK TIME (SEC) =          1
 

 ***WARNING: THE SYSTEM MATRIX HAS 1 NEGATIVE EIGENVALUES.
             EXPLANATIONS ARE SUGGESTED AFTER THE FIRST OCCURRENCE OF THIS MESSAGE.


          INCREMENT NUMBER  117  AT FREQUENCY (CYCLES/TIME) =   1532.4226    

  NUMBER OF EQUATIONS =    27290     NUMBER OF FLOATING PT. OPERATIONS =  2.49E+10

  USING THE DIRECT SOLVER WITH   8 PROCESSORS

     CHECK POINT   START OF SOLVER    

     CHECK POINT  END OF SOLVER       

       ELAPSED USER TIME (SEC)      =   6.5000    
       ELAPSED SYSTEM TIME (SEC)    =   0.0000    
       ELAPSED TOTAL CPU TIME (SEC) =   6.5000    
       ELAPSED WALLCLOCK TIME (SEC) =          1
 

 ***WARNING: THE SYSTEM MATRIX HAS 1 NEGATIVE EIGENVALUES.
             EXPLANATIONS ARE SUGGESTED AFTER THE FIRST OCCURRENCE OF THIS MESSAGE.


          INCREMENT NUMBER  118  AT FREQUENCY (CYCLES/TIME) =   1534.4262    

  NUMBER OF EQUATIONS =    27290     NUMBER OF FLOATING PT. OPERATIONS =  2.49E+10

  USING THE DIRECT SOLVER WITH   8 PROCESSORS

     CHECK POINT   START OF SOLVER    

     CHECK POINT  END OF SOLVER       

       ELAPSED USER TIME (SEC)      =   6.7000    
       ELAPSED SYSTEM TIME (SEC)    =   0.0000    
       ELAPSED TOTAL CPU TIME (SEC) =   6.7000    
       ELAPSED WALLCLOCK TIME (SEC) =          1
 

 ***WARNING: THE SYSTEM MATRIX HAS 1 NEGATIVE EIGENVALUES.
             EXPLANATIONS ARE SUGGESTED AFTER THE FIRST OCCURRENCE OF THIS MESSAGE.


          INCREMENT NUMBER  119  AT FREQUENCY (CYCLES/TIME) =   1536.4299    

  NUMBER OF EQUATIONS =    27290     NUMBER OF FLOATING PT. OPERATIONS =  2.49E+10

  USING THE DIRECT SOLVER WITH   8 PROCESSORS

     CHECK POINT   START OF SOLVER    

     CHECK POINT  END OF SOLVER       

       ELAPSED USER TIME (SEC)      =   6.4000    
       ELAPSED SYSTEM TIME (SEC)    =   0.0000    
       ELAPSED TOTAL CPU TIME (SEC) =   6.4000    
       ELAPSED WALLCLOCK TIME (SEC) =          1
 

 ***WARNING: THE SYSTEM MATRIX HAS 1 NEGATIVE EIGENVALUES.
             EXPLANATIONS ARE SUGGESTED AFTER THE FIRST OCCURRENCE OF THIS MESSAGE.


          INCREMENT NUMBER  120  AT FREQUENCY (CYCLES/TIME) =   1538.4335    

  NUMBER OF EQUATIONS =    27290     NUMBER OF FLOATING PT. OPERATIONS =  2.49E+10

  USING THE DIRECT SOLVER WITH   8 PROCESSORS

     CHECK POINT   START OF SOLVER    

     CHECK POINT  END OF SOLVER       

       ELAPSED USER TIME (SEC)      =   6.3000    
       ELAPSED SYSTEM TIME (SEC)    =   0.0000    
       ELAPSED TOTAL CPU TIME (SEC) =   6.3000    
       ELAPSED WALLCLOCK TIME (SEC) =          1
 

 ***WARNING: THE SYSTEM MATRIX HAS 1 NEGATIVE EIGENVALUES.
             EXPLANATIONS ARE SUGGESTED AFTER THE FIRST OCCURRENCE OF THIS MESSAGE.


          INCREMENT NUMBER  121  AT FREQUENCY (CYCLES/TIME) =   1540.4372    

  NUMBER OF EQUATIONS =    27290     NUMBER OF FLOATING PT. OPERATIONS =  2.49E+10

  USING THE DIRECT SOLVER WITH   8 PROCESSORS

     CHECK POINT   START OF SOLVER    

     CHECK POINT  END OF SOLVER       

       ELAPSED USER TIME (SEC)      =   6.5000    
       ELAPSED SYSTEM TIME (SEC)    =  0.10000    
       ELAPSED TOTAL CPU TIME (SEC) =   6.6000    
       ELAPSED WALLCLOCK TIME (SEC) =          0
 

 ***WARNING: THE SYSTEM MATRIX HAS 1 NEGATIVE EIGENVALUES.
             EXPLANATIONS ARE SUGGESTED AFTER THE FIRST OCCURRENCE OF THIS MESSAGE.


          INCREMENT NUMBER  122  AT FREQUENCY (CYCLES/TIME) =   1542.4408    

  NUMBER OF EQUATIONS =    27290     NUMBER OF FLOATING PT. OPERATIONS =  2.49E+10

  USING THE DIRECT SOLVER WITH   8 PROCESSORS

     CHECK POINT   START OF SOLVER    

     CHECK POINT  END OF SOLVER       

       ELAPSED USER TIME (SEC)      =   6.4000    
       ELAPSED SYSTEM TIME (SEC)    =   0.0000    
       ELAPSED TOTAL CPU TIME (SEC) =   6.4000    
       ELAPSED WALLCLOCK TIME (SEC) =          1
 

 ***WARNING: THE SYSTEM MATRIX HAS 2 NEGATIVE EIGENVALUES.
             EXPLANATIONS ARE SUGGESTED AFTER THE FIRST OCCURRENCE OF THIS MESSAGE.


          INCREMENT NUMBER  123  AT FREQUENCY (CYCLES/TIME) =   1544.4444    

  NUMBER OF EQUATIONS =    27290     NUMBER OF FLOATING PT. OPERATIONS =  2.49E+10

  USING THE DIRECT SOLVER WITH   8 PROCESSORS

     CHECK POINT   START OF SOLVER    

     CHECK POINT  END OF SOLVER       

       ELAPSED USER TIME (SEC)      =   6.7000    
       ELAPSED SYSTEM TIME (SEC)    =   0.0000    
       ELAPSED TOTAL CPU TIME (SEC) =   6.7000    
       ELAPSED WALLCLOCK TIME (SEC) =          1
 

 ***WARNING: THE SYSTEM MATRIX HAS 2 NEGATIVE EIGENVALUES.
             EXPLANATIONS ARE SUGGESTED AFTER THE FIRST OCCURRENCE OF THIS MESSAGE.


          INCREMENT NUMBER  124  AT FREQUENCY (CYCLES/TIME) =   1546.4481    

  NUMBER OF EQUATIONS =    27290     NUMBER OF FLOATING PT. OPERATIONS =  2.49E+10

  USING THE DIRECT SOLVER WITH   8 PROCESSORS

     CHECK POINT   START OF SOLVER    

     CHECK POINT  END OF SOLVER       

       ELAPSED USER TIME (SEC)      =   6.6000    
       ELAPSED SYSTEM TIME (SEC)    =   0.0000    
       ELAPSED TOTAL CPU TIME (SEC) =   6.6000    
       ELAPSED WALLCLOCK TIME (SEC) =          1
 

 ***WARNING: THE SYSTEM MATRIX HAS 2 NEGATIVE EIGENVALUES.
             EXPLANATIONS ARE SUGGESTED AFTER THE FIRST OCCURRENCE OF THIS MESSAGE.


          INCREMENT NUMBER  125  AT FREQUENCY (CYCLES/TIME) =   1548.4517    

  NUMBER OF EQUATIONS =    27290     NUMBER OF FLOATING PT. OPERATIONS =  2.49E+10

  USING THE DIRECT SOLVER WITH   8 PROCESSORS

     CHECK POINT   START OF SOLVER    

     CHECK POINT  END OF SOLVER       

       ELAPSED USER TIME (SEC)      =   6.4000    
       ELAPSED SYSTEM TIME (SEC)    =   0.0000    
       ELAPSED TOTAL CPU TIME (SEC) =   6.4000    
       ELAPSED WALLCLOCK TIME (SEC) =          1
 

 ***WARNING: THE SYSTEM MATRIX HAS 2 NEGATIVE EIGENVALUES.
             EXPLANATIONS ARE SUGGESTED AFTER THE FIRST OCCURRENCE OF THIS MESSAGE.


          INCREMENT NUMBER  126  AT FREQUENCY (CYCLES/TIME) =   1550.4554    

  NUMBER OF EQUATIONS =    27290     NUMBER OF FLOATING PT. OPERATIONS =  2.49E+10

  USING THE DIRECT SOLVER WITH   8 PROCESSORS

     CHECK POINT   START OF SOLVER    

     CHECK POINT  END OF SOLVER       

       ELAPSED USER TIME (SEC)      =   6.5000    
       ELAPSED SYSTEM TIME (SEC)    =   0.0000    
       ELAPSED TOTAL CPU TIME (SEC) =   6.5000    
       ELAPSED WALLCLOCK TIME (SEC) =          1
 

 ***WARNING: THE SYSTEM MATRIX HAS 2 NEGATIVE EIGENVALUES.
             EXPLANATIONS ARE SUGGESTED AFTER THE FIRST OCCURRENCE OF THIS MESSAGE.


          INCREMENT NUMBER  127  AT FREQUENCY (CYCLES/TIME) =   1552.4590    

  NUMBER OF EQUATIONS =    27290     NUMBER OF FLOATING PT. OPERATIONS =  2.49E+10

  USING THE DIRECT SOLVER WITH   8 PROCESSORS

     CHECK POINT   START OF SOLVER    

     CHECK POINT  END OF SOLVER       

       ELAPSED USER TIME (SEC)      =   7.3000    
       ELAPSED SYSTEM TIME (SEC)    =   0.0000    
       ELAPSED TOTAL CPU TIME (SEC) =   7.3000    
       ELAPSED WALLCLOCK TIME (SEC) =          2
 

 ***WARNING: THE SYSTEM MATRIX HAS 2 NEGATIVE EIGENVALUES.
             EXPLANATIONS ARE SUGGESTED AFTER THE FIRST OCCURRENCE OF THIS MESSAGE.


          INCREMENT NUMBER  128  AT FREQUENCY (CYCLES/TIME) =   1554.4627    

  NUMBER OF EQUATIONS =    27290     NUMBER OF FLOATING PT. OPERATIONS =  2.49E+10

  USING THE DIRECT SOLVER WITH   8 PROCESSORS

     CHECK POINT   START OF SOLVER    

     CHECK POINT  END OF SOLVER       

       ELAPSED USER TIME (SEC)      =   6.4000    
       ELAPSED SYSTEM TIME (SEC)    =   0.0000    
       ELAPSED TOTAL CPU TIME (SEC) =   6.4000    
       ELAPSED WALLCLOCK TIME (SEC) =          1
 

 ***WARNING: THE SYSTEM MATRIX HAS 2 NEGATIVE EIGENVALUES.
             EXPLANATIONS ARE SUGGESTED AFTER THE FIRST OCCURRENCE OF THIS MESSAGE.


          INCREMENT NUMBER  129  AT FREQUENCY (CYCLES/TIME) =   1556.4663    

  NUMBER OF EQUATIONS =    27290     NUMBER OF FLOATING PT. OPERATIONS =  2.49E+10

  USING THE DIRECT SOLVER WITH   8 PROCESSORS

     CHECK POINT   START OF SOLVER    

     CHECK POINT  END OF SOLVER       

       ELAPSED USER TIME (SEC)      =   6.6000    
       ELAPSED SYSTEM TIME (SEC)    =   0.0000    
       ELAPSED TOTAL CPU TIME (SEC) =   6.6000    
       ELAPSED WALLCLOCK TIME (SEC) =          1
 

 ***WARNING: THE SYSTEM MATRIX HAS 2 NEGATIVE EIGENVALUES.
             EXPLANATIONS ARE SUGGESTED AFTER THE FIRST OCCURRENCE OF THIS MESSAGE.


          INCREMENT NUMBER  130  AT FREQUENCY (CYCLES/TIME) =   1558.4699    

  NUMBER OF EQUATIONS =    27290     NUMBER OF FLOATING PT. OPERATIONS =  2.49E+10

  USING THE DIRECT SOLVER WITH   8 PROCESSORS

     CHECK POINT   START OF SOLVER    

     CHECK POINT  END OF SOLVER       

       ELAPSED USER TIME (SEC)      =   7.3000    
       ELAPSED SYSTEM TIME (SEC)    =   0.0000    
       ELAPSED TOTAL CPU TIME (SEC) =   7.3000    
       ELAPSED WALLCLOCK TIME (SEC) =          1
 

 ***WARNING: THE SYSTEM MATRIX HAS 2 NEGATIVE EIGENVALUES.
             EXPLANATIONS ARE SUGGESTED AFTER THE FIRST OCCURRENCE OF THIS MESSAGE.


          INCREMENT NUMBER  131  AT FREQUENCY (CYCLES/TIME) =   1560.4736    

  NUMBER OF EQUATIONS =    27290     NUMBER OF FLOATING PT. OPERATIONS =  2.49E+10

  USING THE DIRECT SOLVER WITH   8 PROCESSORS

     CHECK POINT   START OF SOLVER    

     CHECK POINT  END OF SOLVER       

       ELAPSED USER TIME (SEC)      =   6.3000    
       ELAPSED SYSTEM TIME (SEC)    =  0.10000    
       ELAPSED TOTAL CPU TIME (SEC) =   6.4000    
       ELAPSED WALLCLOCK TIME (SEC) =          1
 

 ***WARNING: THE SYSTEM MATRIX HAS 2 NEGATIVE EIGENVALUES.
             EXPLANATIONS ARE SUGGESTED AFTER THE FIRST OCCURRENCE OF THIS MESSAGE.


          INCREMENT NUMBER  132  AT FREQUENCY (CYCLES/TIME) =   1562.4772    

  NUMBER OF EQUATIONS =    27290     NUMBER OF FLOATING PT. OPERATIONS =  2.49E+10

  USING THE DIRECT SOLVER WITH   8 PROCESSORS

     CHECK POINT   START OF SOLVER    

     CHECK POINT  END OF SOLVER       

       ELAPSED USER TIME (SEC)      =   5.9000    
       ELAPSED SYSTEM TIME (SEC)    =   0.0000    
       ELAPSED TOTAL CPU TIME (SEC) =   5.9000    
       ELAPSED WALLCLOCK TIME (SEC) =          1
 

 ***WARNING: THE SYSTEM MATRIX HAS 2 NEGATIVE EIGENVALUES.
             EXPLANATIONS ARE SUGGESTED AFTER THE FIRST OCCURRENCE OF THIS MESSAGE.


          INCREMENT NUMBER  133  AT FREQUENCY (CYCLES/TIME) =   1564.4809    

  NUMBER OF EQUATIONS =    27290     NUMBER OF FLOATING PT. OPERATIONS =  2.49E+10

  USING THE DIRECT SOLVER WITH   8 PROCESSORS

     CHECK POINT   START OF SOLVER    

     CHECK POINT  END OF SOLVER       

       ELAPSED USER TIME (SEC)      =   7.4000    
       ELAPSED SYSTEM TIME (SEC)    =   0.0000    
       ELAPSED TOTAL CPU TIME (SEC) =   7.4000    
       ELAPSED WALLCLOCK TIME (SEC) =          1
 

 ***WARNING: THE SYSTEM MATRIX HAS 2 NEGATIVE EIGENVALUES.
             EXPLANATIONS ARE SUGGESTED AFTER THE FIRST OCCURRENCE OF THIS MESSAGE.


          INCREMENT NUMBER  134  AT FREQUENCY (CYCLES/TIME) =   1566.4845    

  NUMBER OF EQUATIONS =    27290     NUMBER OF FLOATING PT. OPERATIONS =  2.49E+10

  USING THE DIRECT SOLVER WITH   8 PROCESSORS

     CHECK POINT   START OF SOLVER    

     CHECK POINT  END OF SOLVER       

       ELAPSED USER TIME (SEC)      =   6.4000    
       ELAPSED SYSTEM TIME (SEC)    =   0.0000    
       ELAPSED TOTAL CPU TIME (SEC) =   6.4000    
       ELAPSED WALLCLOCK TIME (SEC) =          1
 

 ***WARNING: THE SYSTEM MATRIX HAS 2 NEGATIVE EIGENVALUES.
             EXPLANATIONS ARE SUGGESTED AFTER THE FIRST OCCURRENCE OF THIS MESSAGE.


          INCREMENT NUMBER  135  AT FREQUENCY (CYCLES/TIME) =   1568.4882    

  NUMBER OF EQUATIONS =    27290     NUMBER OF FLOATING PT. OPERATIONS =  2.49E+10

  USING THE DIRECT SOLVER WITH   8 PROCESSORS

     CHECK POINT   START OF SOLVER    

     CHECK POINT  END OF SOLVER       

       ELAPSED USER TIME (SEC)      =   6.3000    
       ELAPSED SYSTEM TIME (SEC)    =   0.0000    
       ELAPSED TOTAL CPU TIME (SEC) =   6.3000    
       ELAPSED WALLCLOCK TIME (SEC) =          1
 

 ***WARNING: THE SYSTEM MATRIX HAS 2 NEGATIVE EIGENVALUES.
             EXPLANATIONS ARE SUGGESTED AFTER THE FIRST OCCURRENCE OF THIS MESSAGE.


          INCREMENT NUMBER  136  AT FREQUENCY (CYCLES/TIME) =   1570.4918    

  NUMBER OF EQUATIONS =    27290     NUMBER OF FLOATING PT. OPERATIONS =  2.49E+10

  USING THE DIRECT SOLVER WITH   8 PROCESSORS

     CHECK POINT   START OF SOLVER    

     CHECK POINT  END OF SOLVER       

       ELAPSED USER TIME (SEC)      =   6.7000    
       ELAPSED SYSTEM TIME (SEC)    =   0.0000    
       ELAPSED TOTAL CPU TIME (SEC) =   6.7000    
       ELAPSED WALLCLOCK TIME (SEC) =          1
 

 ***WARNING: THE SYSTEM MATRIX HAS 2 NEGATIVE EIGENVALUES.
             EXPLANATIONS ARE SUGGESTED AFTER THE FIRST OCCURRENCE OF THIS MESSAGE.


          INCREMENT NUMBER  137  AT FREQUENCY (CYCLES/TIME) =   1572.4954    

  NUMBER OF EQUATIONS =    27290     NUMBER OF FLOATING PT. OPERATIONS =  2.49E+10

  USING THE DIRECT SOLVER WITH   8 PROCESSORS

     CHECK POINT   START OF SOLVER    

     CHECK POINT  END OF SOLVER       

       ELAPSED USER TIME (SEC)      =   6.3000    
       ELAPSED SYSTEM TIME (SEC)    =   0.0000    
       ELAPSED TOTAL CPU TIME (SEC) =   6.3000    
       ELAPSED WALLCLOCK TIME (SEC) =          0
 

 ***WARNING: THE SYSTEM MATRIX HAS 2 NEGATIVE EIGENVALUES.
             EXPLANATIONS ARE SUGGESTED AFTER THE FIRST OCCURRENCE OF THIS MESSAGE.


          INCREMENT NUMBER  138  AT FREQUENCY (CYCLES/TIME) =   1574.4991    

[...]
       ELAPSED SYSTEM TIME (SEC)    =   0.0000    
       ELAPSED TOTAL CPU TIME (SEC) =   8.0000    
       ELAPSED WALLCLOCK TIME (SEC) =          1
 

 ***WARNING: THE SYSTEM MATRIX HAS 7 NEGATIVE EIGENVALUES.
             EXPLANATIONS ARE SUGGESTED AFTER THE FIRST OCCURRENCE OF THIS MESSAGE.


          INCREMENT NUMBER  523  AT FREQUENCY (CYCLES/TIME) =   2345.9016    

  NUMBER OF EQUATIONS =    27290     NUMBER OF FLOATING PT. OPERATIONS =  2.49E+10

  USING THE DIRECT SOLVER WITH   8 PROCESSORS

     CHECK POINT   START OF SOLVER    

     CHECK POINT  END OF SOLVER       

       ELAPSED USER TIME (SEC)      =   7.9000    
       ELAPSED SYSTEM TIME (SEC)    =  0.10000    
       ELAPSED TOTAL CPU TIME (SEC) =   8.0000    
       ELAPSED WALLCLOCK TIME (SEC) =          1
 

 ***WARNING: THE SYSTEM MATRIX HAS 7 NEGATIVE EIGENVALUES.
             EXPLANATIONS ARE SUGGESTED AFTER THE FIRST OCCURRENCE OF THIS MESSAGE.


          INCREMENT NUMBER  524  AT FREQUENCY (CYCLES/TIME) =   2347.9053    

  NUMBER OF EQUATIONS =    27290     NUMBER OF FLOATING PT. OPERATIONS =  2.49E+10

  USING THE DIRECT SOLVER WITH   8 PROCESSORS

     CHECK POINT   START OF SOLVER    

     CHECK POINT  END OF SOLVER       

       ELAPSED USER TIME (SEC)      =   8.6000    
       ELAPSED SYSTEM TIME (SEC)    =   0.0000    
       ELAPSED TOTAL CPU TIME (SEC) =   8.6000    
       ELAPSED WALLCLOCK TIME (SEC) =          1
 

 ***WARNING: THE SYSTEM MATRIX HAS 7 NEGATIVE EIGENVALUES.
             EXPLANATIONS ARE SUGGESTED AFTER THE FIRST OCCURRENCE OF THIS MESSAGE.


          INCREMENT NUMBER  525  AT FREQUENCY (CYCLES/TIME) =   2349.9089    

  NUMBER OF EQUATIONS =    27290     NUMBER OF FLOATING PT. OPERATIONS =  2.49E+10

  USING THE DIRECT SOLVER WITH   8 PROCESSORS

     CHECK POINT   START OF SOLVER    

     CHECK POINT  END OF SOLVER       

       ELAPSED USER TIME (SEC)      =   8.2000    
       ELAPSED SYSTEM TIME (SEC)    =  0.10000    
       ELAPSED TOTAL CPU TIME (SEC) =   8.3000    
       ELAPSED WALLCLOCK TIME (SEC) =          1
 

 ***WARNING: THE SYSTEM MATRIX HAS 7 NEGATIVE EIGENVALUES.
             EXPLANATIONS ARE SUGGESTED AFTER THE FIRST OCCURRENCE OF THIS MESSAGE.


          INCREMENT NUMBER  526  AT FREQUENCY (CYCLES/TIME) =   2351.9126    

  NUMBER OF EQUATIONS =    27290     NUMBER OF FLOATING PT. OPERATIONS =  2.49E+10

  USING THE DIRECT SOLVER WITH   8 PROCESSORS

     CHECK POINT   START OF SOLVER    

     CHECK POINT  END OF SOLVER       

       ELAPSED USER TIME (SEC)      =   7.8000    
       ELAPSED SYSTEM TIME (SEC)    =   0.0000    
       ELAPSED TOTAL CPU TIME (SEC) =   7.8000    
       ELAPSED WALLCLOCK TIME (SEC) =          1
 

 ***WARNING: THE SYSTEM MATRIX HAS 7 NEGATIVE EIGENVALUES.
             EXPLANATIONS ARE SUGGESTED AFTER THE FIRST OCCURRENCE OF THIS MESSAGE.


          INCREMENT NUMBER  527  AT FREQUENCY (CYCLES/TIME) =   2353.9162    

  NUMBER OF EQUATIONS =    27290     NUMBER OF FLOATING PT. OPERATIONS =  2.49E+10

  USING THE DIRECT SOLVER WITH   8 PROCESSORS

     CHECK POINT   START OF SOLVER    

     CHECK POINT  END OF SOLVER       

       ELAPSED USER TIME (SEC)      =   8.1000    
       ELAPSED SYSTEM TIME (SEC)    =  0.10000    
       ELAPSED TOTAL CPU TIME (SEC) =   8.2000    
       ELAPSED WALLCLOCK TIME (SEC) =          1
 

 ***WARNING: THE SYSTEM MATRIX HAS 7 NEGATIVE EIGENVALUES.
             EXPLANATIONS ARE SUGGESTED AFTER THE FIRST OCCURRENCE OF THIS MESSAGE.


          INCREMENT NUMBER  528  AT FREQUENCY (CYCLES/TIME) =   2355.9199    

  NUMBER OF EQUATIONS =    27290     NUMBER OF FLOATING PT. OPERATIONS =  2.49E+10

  USING THE DIRECT SOLVER WITH   8 PROCESSORS

     CHECK POINT   START OF SOLVER    

     CHECK POINT  END OF SOLVER       

       ELAPSED USER TIME (SEC)      =   8.1000    
       ELAPSED SYSTEM TIME (SEC)    =   0.0000    
       ELAPSED TOTAL CPU TIME (SEC) =   8.1000    
       ELAPSED WALLCLOCK TIME (SEC) =          1
 

 ***WARNING: THE SYSTEM MATRIX HAS 7 NEGATIVE EIGENVALUES.
             EXPLANATIONS ARE SUGGESTED AFTER THE FIRST OCCURRENCE OF THIS MESSAGE.


          INCREMENT NUMBER  529  AT FREQUENCY (CYCLES/TIME) =   2357.9235    

  NUMBER OF EQUATIONS =    27290     NUMBER OF FLOATING PT. OPERATIONS =  2.49E+10

  USING THE DIRECT SOLVER WITH   8 PROCESSORS

     CHECK POINT   START OF SOLVER    

     CHECK POINT  END OF SOLVER       

       ELAPSED USER TIME (SEC)      =   8.2000    
       ELAPSED SYSTEM TIME (SEC)    =   0.0000    
       ELAPSED TOTAL CPU TIME (SEC) =   8.2000    
       ELAPSED WALLCLOCK TIME (SEC) =          1
 

 ***WARNING: THE SYSTEM MATRIX HAS 7 NEGATIVE EIGENVALUES.
             EXPLANATIONS ARE SUGGESTED AFTER THE FIRST OCCURRENCE OF THIS MESSAGE.


          INCREMENT NUMBER  530  AT FREQUENCY (CYCLES/TIME) =   2359.9271    

  NUMBER OF EQUATIONS =    27290     NUMBER OF FLOATING PT. OPERATIONS =  2.49E+10

  USING THE DIRECT SOLVER WITH   8 PROCESSORS

     CHECK POINT   START OF SOLVER    

     CHECK POINT  END OF SOLVER       

       ELAPSED USER TIME (SEC)      =   8.1000    
       ELAPSED SYSTEM TIME (SEC)    =   0.0000    
       ELAPSED TOTAL CPU TIME (SEC) =   8.1000    
       ELAPSED WALLCLOCK TIME (SEC) =          2
 

 ***WARNING: THE SYSTEM MATRIX HAS 7 NEGATIVE EIGENVALUES.
             EXPLANATIONS ARE SUGGESTED AFTER THE FIRST OCCURRENCE OF THIS MESSAGE.


          INCREMENT NUMBER  531  AT FREQUENCY (CYCLES/TIME) =   2361.9308    

  NUMBER OF EQUATIONS =    27290     NUMBER OF FLOATING PT. OPERATIONS =  2.49E+10

  USING THE DIRECT SOLVER WITH   8 PROCESSORS

     CHECK POINT   START OF SOLVER    

     CHECK POINT  END OF SOLVER       

       ELAPSED USER TIME (SEC)      =   7.9000    
       ELAPSED SYSTEM TIME (SEC)    =   0.0000    
       ELAPSED TOTAL CPU TIME (SEC) =   7.9000    
       ELAPSED WALLCLOCK TIME (SEC) =          1
 

 ***WARNING: THE SYSTEM MATRIX HAS 7 NEGATIVE EIGENVALUES.
             EXPLANATIONS ARE SUGGESTED AFTER THE FIRST OCCURRENCE OF THIS MESSAGE.


          INCREMENT NUMBER  532  AT FREQUENCY (CYCLES/TIME) =   2363.9344    

  NUMBER OF EQUATIONS =    27290     NUMBER OF FLOATING PT. OPERATIONS =  2.49E+10

  USING THE DIRECT SOLVER WITH   8 PROCESSORS

     CHECK POINT   START OF SOLVER    

     CHECK POINT  END OF SOLVER       

       ELAPSED USER TIME (SEC)      =   7.8000    
       ELAPSED SYSTEM TIME (SEC)    =   0.0000    
       ELAPSED TOTAL CPU TIME (SEC) =   7.8000    
       ELAPSED WALLCLOCK TIME (SEC) =          1
 

 ***WARNING: THE SYSTEM MATRIX HAS 7 NEGATIVE EIGENVALUES.
             EXPLANATIONS ARE SUGGESTED AFTER THE FIRST OCCURRENCE OF THIS MESSAGE.


          INCREMENT NUMBER  533  AT FREQUENCY (CYCLES/TIME) =   2365.9381    

  NUMBER OF EQUATIONS =    27290     NUMBER OF FLOATING PT. OPERATIONS =  2.49E+10

  USING THE DIRECT SOLVER WITH   8 PROCESSORS

     CHECK POINT   START OF SOLVER    

     CHECK POINT  END OF SOLVER       

       ELAPSED USER TIME (SEC)      =   8.0000    
       ELAPSED SYSTEM TIME (SEC)    =   0.0000    
       ELAPSED TOTAL CPU TIME (SEC) =   8.0000    
       ELAPSED WALLCLOCK TIME (SEC) =          1
 

 ***WARNING: THE SYSTEM MATRIX HAS 7 NEGATIVE EIGENVALUES.
             EXPLANATIONS ARE SUGGESTED AFTER THE FIRST OCCURRENCE OF THIS MESSAGE.


          INCREMENT NUMBER  534  AT FREQUENCY (CYCLES/TIME) =   2367.9417    

  NUMBER OF EQUATIONS =    27290     NUMBER OF FLOATING PT. OPERATIONS =  2.49E+10

  USING THE DIRECT SOLVER WITH   8 PROCESSORS

     CHECK POINT   START OF SOLVER    

     CHECK POINT  END OF SOLVER       

       ELAPSED USER TIME (SEC)      =   8.2000    
       ELAPSED SYSTEM TIME (SEC)    =   0.0000    
       ELAPSED TOTAL CPU TIME (SEC) =   8.2000    
       ELAPSED WALLCLOCK TIME (SEC) =          1
 

 ***WARNING: THE SYSTEM MATRIX HAS 7 NEGATIVE EIGENVALUES.
             EXPLANATIONS ARE SUGGESTED AFTER THE FIRST OCCURRENCE OF THIS MESSAGE.


          INCREMENT NUMBER  535  AT FREQUENCY (CYCLES/TIME) =   2369.9454    

  NUMBER OF EQUATIONS =    27290     NUMBER OF FLOATING PT. OPERATIONS =  2.49E+10

  USING THE DIRECT SOLVER WITH   8 PROCESSORS

     CHECK POINT   START OF SOLVER    

     CHECK POINT  END OF SOLVER       

       ELAPSED USER TIME (SEC)      =   7.7000    
       ELAPSED SYSTEM TIME (SEC)    =   0.0000    
       ELAPSED TOTAL CPU TIME (SEC) =   7.7000    
       ELAPSED WALLCLOCK TIME (SEC) =          2
 

 ***WARNING: THE SYSTEM MATRIX HAS 7 NEGATIVE EIGENVALUES.
             EXPLANATIONS ARE SUGGESTED AFTER THE FIRST OCCURRENCE OF THIS MESSAGE.


          INCREMENT NUMBER  536  AT FREQUENCY (CYCLES/TIME) =   2371.9490    

  NUMBER OF EQUATIONS =    27290     NUMBER OF FLOATING PT. OPERATIONS =  2.49E+10

  USING THE DIRECT SOLVER WITH   8 PROCESSORS

     CHECK POINT   START OF SOLVER    

     CHECK POINT  END OF SOLVER       

       ELAPSED USER TIME (SEC)      =   8.1000    
       ELAPSED SYSTEM TIME (SEC)    =  0.10000    
       ELAPSED TOTAL CPU TIME (SEC) =   8.2000    
       ELAPSED WALLCLOCK TIME (SEC) =          1
 

 ***WARNING: THE SYSTEM MATRIX HAS 7 NEGATIVE EIGENVALUES.
             EXPLANATIONS ARE SUGGESTED AFTER THE FIRST OCCURRENCE OF THIS MESSAGE.


          INCREMENT NUMBER  537  AT FREQUENCY (CYCLES/TIME) =   2373.9526    

  NUMBER OF EQUATIONS =    27290     NUMBER OF FLOATING PT. OPERATIONS =  2.49E+10

  USING THE DIRECT SOLVER WITH   8 PROCESSORS

     CHECK POINT   START OF SOLVER    

     CHECK POINT  END OF SOLVER       

       ELAPSED USER TIME (SEC)      =   9.0000    
       ELAPSED SYSTEM TIME (SEC)    =   0.0000    
       ELAPSED TOTAL CPU TIME (SEC) =   9.0000    
       ELAPSED WALLCLOCK TIME (SEC) =          1
 

 ***WARNING: THE SYSTEM MATRIX HAS 7 NEGATIVE EIGENVALUES.
             EXPLANATIONS ARE SUGGESTED AFTER THE FIRST OCCURRENCE OF THIS MESSAGE.


          INCREMENT NUMBER  538  AT FREQUENCY (CYCLES/TIME) =   2375.9563    

  NUMBER OF EQUATIONS =    27290     NUMBER OF FLOATING PT. OPERATIONS =  2.49E+10

  USING THE DIRECT SOLVER WITH   8 PROCESSORS

     CHECK POINT   START OF SOLVER    

     CHECK POINT  END OF SOLVER       

       ELAPSED USER TIME (SEC)      =   8.4000    
       ELAPSED SYSTEM TIME (SEC)    =   0.0000    
       ELAPSED TOTAL CPU TIME (SEC) =   8.4000    
       ELAPSED WALLCLOCK TIME (SEC) =          1
 

 ***WARNING: THE SYSTEM MATRIX HAS 7 NEGATIVE EIGENVALUES.
             EXPLANATIONS ARE SUGGESTED AFTER THE FIRST OCCURRENCE OF THIS MESSAGE.


          INCREMENT NUMBER  539  AT FREQUENCY (CYCLES/TIME) =   2377.9599    

  NUMBER OF EQUATIONS =    27290     NUMBER OF FLOATING PT. OPERATIONS =  2.49E+10

  USING THE DIRECT SOLVER WITH   8 PROCESSORS

     CHECK POINT   START OF SOLVER    

     CHECK POINT  END OF SOLVER       

       ELAPSED USER TIME (SEC)      =   8.0000    
       ELAPSED SYSTEM TIME (SEC)    =   0.0000    
       ELAPSED TOTAL CPU TIME (SEC) =   8.0000    
       ELAPSED WALLCLOCK TIME (SEC) =          1
 

 ***WARNING: THE SYSTEM MATRIX HAS 7 NEGATIVE EIGENVALUES.
             EXPLANATIONS ARE SUGGESTED AFTER THE FIRST OCCURRENCE OF THIS MESSAGE.


          INCREMENT NUMBER  540  AT FREQUENCY (CYCLES/TIME) =   2379.9636    

  NUMBER OF EQUATIONS =    27290     NUMBER OF FLOATING PT. OPERATIONS =  2.49E+10

  USING THE DIRECT SOLVER WITH   8 PROCESSORS

     CHECK POINT   START OF SOLVER    

     CHECK POINT  END OF SOLVER       

       ELAPSED USER TIME (SEC)      =   8.4000    
       ELAPSED SYSTEM TIME (SEC)    =   0.0000    
       ELAPSED TOTAL CPU TIME (SEC) =   8.4000    
       ELAPSED WALLCLOCK TIME (SEC) =          1
 

 ***WARNING: THE SYSTEM MATRIX HAS 7 NEGATIVE EIGENVALUES.
             EXPLANATIONS ARE SUGGESTED AFTER THE FIRST OCCURRENCE OF THIS MESSAGE.


          INCREMENT NUMBER  541  AT FREQUENCY (CYCLES/TIME) =   2381.9672    

  NUMBER OF EQUATIONS =    27290     NUMBER OF FLOATING PT. OPERATIONS =  2.49E+10

  USING THE DIRECT SOLVER WITH   8 PROCESSORS

     CHECK POINT   START OF SOLVER    

     CHECK POINT  END OF SOLVER       

       ELAPSED USER TIME (SEC)      =   8.0000    
       ELAPSED SYSTEM TIME (SEC)    =   0.0000    
       ELAPSED TOTAL CPU TIME (SEC) =   8.0000    
       ELAPSED WALLCLOCK TIME (SEC) =          1
 

 ***WARNING: THE SYSTEM MATRIX HAS 7 NEGATIVE EIGENVALUES.
             EXPLANATIONS ARE SUGGESTED AFTER THE FIRST OCCURRENCE OF THIS MESSAGE.


          INCREMENT NUMBER  542  AT FREQUENCY (CYCLES/TIME) =   2383.9709    

  NUMBER OF EQUATIONS =    27290     NUMBER OF FLOATING PT. OPERATIONS =  2.49E+10

  USING THE DIRECT SOLVER WITH   8 PROCESSORS

     CHECK POINT   START OF SOLVER    

     CHECK POINT  END OF SOLVER       

       ELAPSED USER TIME (SEC)      =   8.1000    
       ELAPSED SYSTEM TIME (SEC)    =  0.10000    
       ELAPSED TOTAL CPU TIME (SEC) =   8.2000    
       ELAPSED WALLCLOCK TIME (SEC) =          1
 

 ***WARNING: THE SYSTEM MATRIX HAS 7 NEGATIVE EIGENVALUES.
             EXPLANATIONS ARE SUGGESTED AFTER THE FIRST OCCURRENCE OF THIS MESSAGE.


          INCREMENT NUMBER  543  AT FREQUENCY (CYCLES/TIME) =   2385.9745    

  NUMBER OF EQUATIONS =    27290     NUMBER OF FLOATING PT. OPERATIONS =  2.49E+10

  USING THE DIRECT SOLVER WITH   8 PROCESSORS

     CHECK POINT   START OF SOLVER    

     CHECK POINT  END OF SOLVER       

       ELAPSED USER TIME (SEC)      =   8.6000    
       ELAPSED SYSTEM TIME (SEC)    =   0.0000    
       ELAPSED TOTAL CPU TIME (SEC) =   8.6000    
       ELAPSED WALLCLOCK TIME (SEC) =          1
 

 ***WARNING: THE SYSTEM MATRIX HAS 7 NEGATIVE EIGENVALUES.
             EXPLANATIONS ARE SUGGESTED AFTER THE FIRST OCCURRENCE OF THIS MESSAGE.


          INCREMENT NUMBER  544  AT FREQUENCY (CYCLES/TIME) =   2387.9781    

  NUMBER OF EQUATIONS =    27290     NUMBER OF FLOATING PT. OPERATIONS =  2.49E+10

  USING THE DIRECT SOLVER WITH   8 PROCESSORS

     CHECK POINT   START OF SOLVER    

     CHECK POINT  END OF SOLVER       

       ELAPSED USER TIME (SEC)      =   7.9000    
       ELAPSED SYSTEM TIME (SEC)    =   0.0000    
       ELAPSED TOTAL CPU TIME (SEC) =   7.9000    
       ELAPSED WALLCLOCK TIME (SEC) =          1
 

 ***WARNING: THE SYSTEM MATRIX HAS 7 NEGATIVE EIGENVALUES.
             EXPLANATIONS ARE SUGGESTED AFTER THE FIRST OCCURRENCE OF THIS MESSAGE.


          INCREMENT NUMBER  545  AT FREQUENCY (CYCLES/TIME) =   2389.9818    

  NUMBER OF EQUATIONS =    27290     NUMBER OF FLOATING PT. OPERATIONS =  2.49E+10

  USING THE DIRECT SOLVER WITH   8 PROCESSORS

     CHECK POINT   START OF SOLVER    

     CHECK POINT  END OF SOLVER       

       ELAPSED USER TIME (SEC)      =   7.6000    
       ELAPSED SYSTEM TIME (SEC)    =  0.10000    
       ELAPSED TOTAL CPU TIME (SEC) =   7.7000    
       ELAPSED WALLCLOCK TIME (SEC) =          1
 

 ***WARNING: THE SYSTEM MATRIX HAS 7 NEGATIVE EIGENVALUES.
             EXPLANATIONS ARE SUGGESTED AFTER THE FIRST OCCURRENCE OF THIS MESSAGE.


          INCREMENT NUMBER  546  AT FREQUENCY (CYCLES/TIME) =   2391.9854    

  NUMBER OF EQUATIONS =    27290     NUMBER OF FLOATING PT. OPERATIONS =  2.49E+10

  USING THE DIRECT SOLVER WITH   8 PROCESSORS

     CHECK POINT   START OF SOLVER    

     CHECK POINT  END OF SOLVER       

       ELAPSED USER TIME (SEC)      =   7.7000    
       ELAPSED SYSTEM TIME (SEC)    =   0.0000    
       ELAPSED TOTAL CPU TIME (SEC) =   7.7000    
       ELAPSED WALLCLOCK TIME (SEC) =          1
 

 ***WARNING: THE SYSTEM MATRIX HAS 7 NEGATIVE EIGENVALUES.
             EXPLANATIONS ARE SUGGESTED AFTER THE FIRST OCCURRENCE OF THIS MESSAGE.


          INCREMENT NUMBER  547  AT FREQUENCY (CYCLES/TIME) =   2393.9891    

  NUMBER OF EQUATIONS =    27290     NUMBER OF FLOATING PT. OPERATIONS =  2.49E+10

  USING THE DIRECT SOLVER WITH   8 PROCESSORS

     CHECK POINT   START OF SOLVER    

     CHECK POINT  END OF SOLVER       

       ELAPSED USER TIME (SEC)      =   7.6000    
       ELAPSED SYSTEM TIME (SEC)    =   0.0000    
       ELAPSED TOTAL CPU TIME (SEC) =   7.6000    
       ELAPSED WALLCLOCK TIME (SEC) =          1
 

 ***WARNING: THE SYSTEM MATRIX HAS 7 NEGATIVE EIGENVALUES.
             EXPLANATIONS ARE SUGGESTED AFTER THE FIRST OCCURRENCE OF THIS MESSAGE.


          INCREMENT NUMBER  548  AT FREQUENCY (CYCLES/TIME) =   2395.9927    

  NUMBER OF EQUATIONS =    27290     NUMBER OF FLOATING PT. OPERATIONS =  2.49E+10

  USING THE DIRECT SOLVER WITH   8 PROCESSORS

     CHECK POINT   START OF SOLVER    

     CHECK POINT  END OF SOLVER       

       ELAPSED USER TIME (SEC)      =   7.9000    
       ELAPSED SYSTEM TIME (SEC)    =   0.0000    
       ELAPSED TOTAL CPU TIME (SEC) =   7.9000    
       ELAPSED WALLCLOCK TIME (SEC) =          1
 

 ***WARNING: THE SYSTEM MATRIX HAS 7 NEGATIVE EIGENVALUES.
             EXPLANATIONS ARE SUGGESTED AFTER THE FIRST OCCURRENCE OF THIS MESSAGE.


          INCREMENT NUMBER  549  AT FREQUENCY (CYCLES/TIME) =   2397.9964    

  NUMBER OF EQUATIONS =    27290     NUMBER OF FLOATING PT. OPERATIONS =  2.49E+10

  USING THE DIRECT SOLVER WITH   8 PROCESSORS

     CHECK POINT   START OF SOLVER    

     CHECK POINT  END OF SOLVER       

       ELAPSED USER TIME (SEC)      =   8.5000    
       ELAPSED SYSTEM TIME (SEC)    =   0.0000    
       ELAPSED TOTAL CPU TIME (SEC) =   8.5000    
       ELAPSED WALLCLOCK TIME (SEC) =          2
 

 ***WARNING: THE SYSTEM MATRIX HAS 7 NEGATIVE EIGENVALUES.
             EXPLANATIONS ARE SUGGESTED AFTER THE FIRST OCCURRENCE OF THIS MESSAGE.


          INCREMENT NUMBER  550  AT FREQUENCY (CYCLES/TIME) =   2400.0000    

  NUMBER OF EQUATIONS =    27290     NUMBER OF FLOATING PT. OPERATIONS =  2.49E+10

  USING THE DIRECT SOLVER WITH   8 PROCESSORS

     CHECK POINT   START OF SOLVER    

     CHECK POINT  END OF SOLVER       

       ELAPSED USER TIME (SEC)      =   7.7000    
       ELAPSED SYSTEM TIME (SEC)    =   0.0000    
       ELAPSED TOTAL CPU TIME (SEC) =   7.7000    
       ELAPSED WALLCLOCK TIME (SEC) =          1
 

 ***WARNING: THE SYSTEM MATRIX HAS 7 NEGATIVE EIGENVALUES.
             EXPLANATIONS ARE SUGGESTED AFTER THE FIRST OCCURRENCE OF THIS MESSAGE.


          THE ANALYSIS HAS BEEN COMPLETED



     ANALYSIS SUMMARY:
     TOTAL OF        550  INCREMENTS
                       0  CUTBACKS IN AUTOMATIC INCREMENTATION
                     550  ITERATIONS INCLUDING CONTACT ITERATIONS IF PRESENT
                     550  PASSES THROUGH THE EQUATION SOLVER OF WHICH 
                     550  INVOLVE MATRIX DECOMPOSITION, INCLUDING
                       0  DECOMPOSITION(S) OF THE MASS MATRIX
                       1  REORDERING OF EQUATIONS TO MINIMIZE WAVEFRONT
                       0  ADDITIONAL RESIDUAL EVALUATIONS FOR LINE SEARCHES
                       0  ADDITIONAL OPERATOR EVALUATIONS FOR LINE SEARCHES
                       6  WARNING MESSAGES DURING USER INPUT PROCESSING
                     467  WARNING MESSAGES DURING ANALYSIS
                       0  ANALYSIS WARNINGS ARE NUMERICAL PROBLEM MESSAGES
                     467  ANALYSIS WARNINGS ARE NEGATIVE EIGENVALUE MESSAGES
                       0  ERROR MESSAGES



     JOB TIME SUMMARY
       USER TIME (SEC)      =   4760.3    
       SYSTEM TIME (SEC)    =   24.600    
       TOTAL CPU TIME (SEC) =   4784.9    
       WALLCLOCK TIME (SEC) =       1226
