*Heading
** Job name: closedloop_step Model name: Cylindrical Panel
** Generated by: Abaqus/CAE 6.13-1
*Preprint, echo=YES, model=YES, history=YES, contact=YES
**
** PARTS
**
*Part, name=Cylinder
*End Part
**  
*Part, name=Piezo
*End Part
**  
*Part, name=Sensor
*End Part
**  
**
** ASSEMBLY
**
*Assembly, name=Assembly
**  
*Instance, name=Cylinder-1, part=Cylinder
*Node
      1, -0.0522642322,  0.497260958,  0.200000003
      2, -0.154508501,   0.47552827,  0.200000003
      3, -0.154508501,   0.47552827,           0.
      4, -0.0522642322,  0.497260958,           0.
      5, -0.163779005,   0.50405997,  0.200000003
      6, -0.163779005,   0.50405997,           0.
      7, -0.0554000847,  0.527096629,           0.
      8, -0.0554000847,  0.527096629,  0.200000003
      9, -0.0522642322,  0.497260958,  0.400000006
     10, -0.154508501,   0.47552827,  0.400000006
     11, -0.0554000847,  0.527096629,  0.400000006
     12, -0.163779005,   0.50405997,  0.400000006
     13, -0.0522642322,  0.497260958,  0.600000024
     14, -0.154508501,   0.47552827,  0.600000024
     15, -0.0554000847,  0.527096629,  0.600000024
     16, -0.163779005,   0.50405997,  0.600000024
     17, -0.163779005,   0.50405997,  0.800000012
     18, -0.0554000847,  0.527096629,  0.800000012
     19, -0.154508501,   0.47552827,  0.800000012
     20, -0.0522642322,  0.497260958,  0.800000012
** ... 5105 like lines cut
*Element, type=C3D8R
 1,  102,  869, 3131,  845,    1,   73,  829,   84
 2,  869,  870, 3132, 3131,   73,   74,  830,  829
 3,  870,  108,  857, 3132,   74,    2,   75,  830
 4,  845, 3131, 3133,  846,   84,  829,  831,   83
 5, 3131, 3132, 3134, 3133,  829,  830,  832,  831
 6, 3132,  857,  858, 3134,  830,   75,   76,  832
 7,  846, 3133, 3135,  847,   83,  831,  833,   82
 8, 3133, 3134, 3136, 3135,  831,  832,  834,  833
 9, 3134,  858,  859, 3136,  832,   76,   77,  834
10,  847, 3135, 3137,  848,   82,  833,  835,   81
11, 3135, 3136, 3138, 3137,  833,  834,  836,  835
12, 3136,  859,  860, 3138,  834,   77,   78,  836
13,  848, 3137,  875,   97,   81,  835,   80,    4
14, 3137, 3138,  876,  875,  835,  836,   79,   80
15, 3138,  860,  103,  876,  836,   78,    3,   79
16,  101,  871, 3139,  849,  102,  869, 3131,  845
17,  871,  872, 3140, 3139,  869,  870, 3132, 3131
18,  872,  107,  861, 3140,  870,  108,  857, 3132
19,  849, 3139, 3141,  850,  845, 3131, 3133,  846
20, 3139, 3140, 3142, 3141, 3131, 3132, 3134, 3133
** ... 3820 like lines cut
*Nset, nset=_G8, internal, generate
    1,  5125,     1
*Elset, elset=_G8, internal, generate
    1,  3840,     1
*Nset, nset=_G9, internal, generate
    1,  5125,     1
*Elset, elset=_G9, internal, generate
    1,  3840,     1
*Nset, nset=Set-1
 26,
*Orientation, name=Ori-1, system=CYLINDRICAL
          0.,           0.,          0.5,           0.,           0.,         -0.5
1, 0.
** Section: HostSec
*Solid Section, elset=_G8, orientation=Ori-1, material=Host
,
*End Instance
**  
*Instance, name=Piezo-1, part=Piezo
 -3.97987198752503e-12,  -3.29736238313671e-14,          0.4
*Node
      1, 0.0554000847,  0.527096629,  0.200000003
      2,  0.036970932,  0.528708935,  0.200000003
      3, 0.0184967332,  0.529677153,  0.200000003
      4,           0.,  0.529999971,  0.200000003
      5, -0.0184967332,  0.529677153,  0.200000003
      6, -0.036970932,  0.528708935,  0.200000003
      7, -0.0554000847,  0.527096629,  0.200000003
      8, 0.0554000847,  0.527096629,  0.180000007
      9,  0.036970932,  0.528708935,  0.180000007
     10, 0.0184967332,  0.529677153,  0.180000007
     11,           0.,  0.529999971,  0.180000007
     12, -0.0184967332,  0.529677153,  0.180000007
     13, -0.036970932,  0.528708935,  0.180000007
     14, -0.0554000847,  0.527096629,  0.180000007
     15, 0.0554000847,  0.527096629,  0.159999996
     16,  0.036970932,  0.528708935,  0.159999996
     17, 0.0184967332,  0.529677153,  0.159999996
     18,           0.,  0.529999971,  0.159999996
     19, -0.0184967332,  0.529677153,  0.159999996
     20, -0.036970932,  0.528708935,  0.159999996
** ... 288 like lines cut
*Element, type=C3D8E
  1,  78,  79,  86,  85,   1,   2,   9,   8
  2,  79,  80,  87,  86,   2,   3,  10,   9
  3,  80,  81,  88,  87,   3,   4,  11,  10
  4,  81,  82,  89,  88,   4,   5,  12,  11
  5,  82,  83,  90,  89,   5,   6,  13,  12
  6,  83,  84,  91,  90,   6,   7,  14,  13
  7,  85,  86,  93,  92,   8,   9,  16,  15
  8,  86,  87,  94,  93,   9,  10,  17,  16
  9,  87,  88,  95,  94,  10,  11,  18,  17
 10,  88,  89,  96,  95,  11,  12,  19,  18
 11,  89,  90,  97,  96,  12,  13,  20,  19
 12,  90,  91,  98,  97,  13,  14,  21,  20
 13,  92,  93, 100,  99,  15,  16,  23,  22
 14,  93,  94, 101, 100,  16,  17,  24,  23
 15,  94,  95, 102, 101,  17,  18,  25,  24
 16,  95,  96, 103, 102,  18,  19,  26,  25
 17,  96,  97, 104, 103,  19,  20,  27,  26
 18,  97,  98, 105, 104,  20,  21,  28,  27
 19,  99, 100, 107, 106,  22,  23,  30,  29
 20, 100, 101, 108, 107,  23,  24,  31,  30
** ... 160 like lines cut
*Nset, nset=_G3, internal, generate
   1,  308,    1
*Elset, elset=_G3, internal, generate
   1,  180,    1
*Nset, nset=_G4, internal, generate
   1,  308,    1
*Elset, elset=_G4, internal, generate
   1,  180,    1
*Orientation, name=Ori-1, system=CYLINDRICAL
          0.,           0.,          0.2,           0.,           0.,         -0.8
1, 0.
** Section: ActSec
*Solid Section, elset=_G3, orientation=Ori-1, material=Actuator
,
*End Instance
**  
*Instance, name=Sensor-1, part=Sensor
 -3.67583741223143e-12,  -4.58882931653193e-13,          0.4
*Node
      1, 0.0517415889,  0.492288351,  0.200000003
      2, 0.0474436469,  0.492721111,  0.200000003
      3, 0.0431420915,  0.493116379,  0.200000003
      4,  0.038837254,  0.493474066,  0.200000003
      5,  0.034529455,  0.493794203,  0.200000003
      6, 0.0302190278,  0.494076729,  0.200000003
      7, 0.0259062983,  0.494321615,  0.200000003
      8, 0.0215915963,   0.49452886,  0.200000003
      9, 0.0172752514,  0.494698465,  0.200000003
     10, 0.0129575897,   0.49483037,  0.200000003
     11, 0.00863894075,  0.494924605,  0.200000003
     12, 0.00431963522,   0.49498114,  0.200000003
     13,           0.,  0.495000005,  0.200000003
     14, -0.00431963522,   0.49498114,  0.200000003
     15, -0.00863894075,  0.494924605,  0.200000003
     16, -0.0129575897,   0.49483037,  0.200000003
     17, -0.0172752514,  0.494698465,  0.200000003
     18, -0.0215915963,   0.49452886,  0.200000003
     19, -0.0259062983,  0.494321615,  0.200000003
     20, -0.0302190278,  0.494076729,  0.200000003
** ... 4080 like lines cut
*Element, type=C3D8E
   1, 1026, 1027, 1052, 1051,    1,    2,   27,   26
   2, 1027, 1028, 1053, 1052,    2,    3,   28,   27
   3, 1028, 1029, 1054, 1053,    3,    4,   29,   28
   4, 1029, 1030, 1055, 1054,    4,    5,   30,   29
   5, 1030, 1031, 1056, 1055,    5,    6,   31,   30
   6, 1031, 1032, 1057, 1056,    6,    7,   32,   31
   7, 1032, 1033, 1058, 1057,    7,    8,   33,   32
   8, 1033, 1034, 1059, 1058,    8,    9,   34,   33
   9, 1034, 1035, 1060, 1059,    9,   10,   35,   34
  10, 1035, 1036, 1061, 1060,   10,   11,   36,   35
  11, 1036, 1037, 1062, 1061,   11,   12,   37,   36
  12, 1037, 1038, 1063, 1062,   12,   13,   38,   37
  13, 1038, 1039, 1064, 1063,   13,   14,   39,   38
  14, 1039, 1040, 1065, 1064,   14,   15,   40,   39
  15, 1040, 1041, 1066, 1065,   15,   16,   41,   40
  16, 1041, 1042, 1067, 1066,   16,   17,   42,   41
  17, 1042, 1043, 1068, 1067,   17,   18,   43,   42
  18, 1043, 1044, 1069, 1068,   18,   19,   44,   43
  19, 1044, 1045, 1070, 1069,   19,   20,   45,   44
  20, 1045, 1046, 1071, 1070,   20,   21,   46,   45
** ... 2860 like lines cut
*Nset, nset=_G3, internal, generate
    1,  4100,     1
*Elset, elset=_G3, internal, generate
    1,  2880,     1
*Nset, nset=_G4, internal, generate
    1,  4100,     1
*Elset, elset=_G4, internal, generate
    1,  2880,     1
*Orientation, name=Ori-1, system=CYLINDRICAL
          0.,           0.,          0.2,           0.,           0.,         -0.8
1, 0.
** Section: SenSec
*Solid Section, elset=_G3, orientation=Ori-1, material=Sens
,
*End Instance
**  
*Nset, nset=SENSOR_POINT_1, instance=Sensor-1
 637,
*Nset, nset=SENSOR_POINT_2, instance=Sensor-1
 30,
*Nset, nset=SENSOR_POINT_3, instance=Sensor-1
 33,
*Nset, nset=SENSOR_POINT_4, instance=Sensor-1
 37,
*Nset, nset=SENSOR_POINT_5, instance=Sensor-1
 102,
*Nset, nset=SENSOR_POINT_6, instance=Sensor-1
 105,
*Nset, nset=SENSOR_POINT_7, instance=Sensor-1
 108,
*Nset, nset=SENSOR_POINT_8, instance=Sensor-1
 109,
*Nset, nset=SENSOR_POINT_9, instance=Sensor-1
 152,
*Nset, nset=SENSOR_POINT_10, instance=Sensor-1
 180,
*Nset, nset=SENSOR_POINT_11, instance=Sensor-1
 210,
*Nset, nset=SENSOR_POINT_12, instance=Sensor-1
 278,
*Nset, nset=SENSOR_POINT_13, instance=Sensor-1
 281,
*Nset, nset=SENSOR_POINT_14, instance=Sensor-1
 287,
*Nset, nset=SENSOR_POINT_15, instance=Sensor-1
 352,
*Nset, nset=SENSOR_POINT_16, instance=Sensor-1
 356,
*Nset, nset=SENSOR_POINT_17, instance=Sensor-1
 3485,
*Nset, nset=SENSOR_POINT_18, instance=Sensor-1
 457,
*Nset, nset=act_lower_layer, instance=Piezo-1, generate
  1,  77,   1
*Elset, elset=act_lower_layer, instance=Piezo-1, generate
  1,  60,   1
*Nset, nset=act_sens_back_side, instance=Piezo-1
  71,  72,  73,  74,  75,  76,  77, 148, 149, 150, 151, 152, 153, 154, 225, 226
 227, 228, 229, 230, 231, 302, 303, 304, 305, 306, 307, 308
*Nset, nset=act_sens_back_side, instance=Sensor-1
 1001, 1002, 1003, 1004, 1005, 1006, 1007, 1008, 1009, 1010, 1011, 1012, 1013, 1014, 1015, 1016
 1017, 1018, 1019, 1020, 1021, 1022, 1023, 1024, 1025, 2026, 2027, 2028, 2029, 2030, 2031, 2032
 2033, 2034, 2035, 2036, 2037, 2038, 2039, 2040, 2041, 2042, 2043, 2044, 2045, 2046, 2047, 2048
 2049, 2050, 3051, 3052, 3053, 3054, 3055, 3056, 3057, 3058, 3059, 3060, 3061, 3062, 3063, 3064
 3065, 3066, 3067, 3068, 3069, 3070, 3071, 3072, 3073, 3074, 3075, 4076, 4077, 4078, 4079, 4080
 4081, 4082, 4083, 4084, 4085, 4086, 4087, 4088, 4089, 4090, 4091, 4092, 4093, 4094, 4095, 4096
 4097, 4098, 4099, 4100
*Elset, elset=act_sens_back_side, instance=Piezo-1
  55,  56,  57,  58,  59,  60, 115, 116, 117, 118, 119, 120, 175, 176, 177, 178
 179, 180
*Elset, elset=act_sens_back_side, instance=Sensor-1
  937,  938,  939,  940,  941,  942,  943,  944,  945,  946,  947,  948,  949,  950,  951,  952
  953,  954,  955,  956,  957,  958,  959,  960, 1897, 1898, 1899, 1900, 1901, 1902, 1903, 1904
 1905, 1906, 1907, 1908, 1909, 1910, 1911, 1912, 1913, 1914, 1915, 1916, 1917, 1918, 1919, 1920
 2857, 2858, 2859, 2860, 2861, 2862, 2863, 2864, 2865, 2866, 2867, 2868, 2869, 2870, 2871, 2872
 2873, 2874, 2875, 2876, 2877, 2878, 2879, 2880
*Nset, nset=act_sens_front_side, instance=Piezo-1
   1,   2,   3,   4,   5,   6,   7,  78,  79,  80,  81,  82,  83,  84, 155, 156
 157, 158, 159, 160, 161, 232, 233, 234, 235, 236, 237, 238
*Nset, nset=act_sens_front_side, instance=Sensor-1
    1,    2,    3,    4,    5,    6,    7,    8,    9,   10,   11,   12,   13,   14,   15,   16
   17,   18,   19,   20,   21,   22,   23,   24,   25, 1026, 1027, 1028, 1029, 1030, 1031, 1032
 1033, 1034, 1035, 1036, 1037, 1038, 1039, 1040, 1041, 1042, 1043, 1044, 1045, 1046, 1047, 1048
 1049, 1050, 2051, 2052, 2053, 2054, 2055, 2056, 2057, 2058, 2059, 2060, 2061, 2062, 2063, 2064
 2065, 2066, 2067, 2068, 2069, 2070, 2071, 2072, 2073, 2074, 2075, 3076, 3077, 3078, 3079, 3080
 3081, 3082, 3083, 3084, 3085, 3086, 3087, 3088, 3089, 3090, 3091, 3092, 3093, 3094, 3095, 3096
 3097, 3098, 3099, 3100
*Elset, elset=act_sens_front_side, instance=Piezo-1
   1,   2,   3,   4,   5,   6,  61,  62,  63,  64,  65,  66, 121, 122, 123, 124
 125, 126
*Elset, elset=act_sens_front_side, instance=Sensor-1
    1,    2,    3,    4,    5,    6,    7,    8,    9,   10,   11,   12,   13,   14,   15,   16
   17,   18,   19,   20,   21,   22,   23,   24,  961,  962,  963,  964,  965,  966,  967,  968
  969,  970,  971,  972,  973,  974,  975,  976,  977,  978,  979,  980,  981,  982,  983,  984
 1921, 1922, 1923, 1924, 1925, 1926, 1927, 1928, 1929, 1930, 1931, 1932, 1933, 1934, 1935, 1936
 1937, 1938, 1939, 1940, 1941, 1942, 1943, 1944
*Nset, nset=act_sens_left_side, instance=Piezo-1, generate
   7,  308,    7
*Nset, nset=act_sens_left_side, instance=Sensor-1, generate
   25,  4100,    25
*Elset, elset=act_sens_left_side, instance=Piezo-1, generate
   6,  180,    6
*Elset, elset=act_sens_left_side, instance=Sensor-1, generate
   24,  2880,    24
*Nset, nset=act_sens_right_side, instance=Piezo-1, generate
   1,  302,    7
*Nset, nset=act_sens_right_side, instance=Sensor-1, generate
    1,  4076,    25
*Elset, elset=act_sens_right_side, instance=Piezo-1, generate
   1,  175,    6
*Elset, elset=act_sens_right_side, instance=Sensor-1, generate
    1,  2857,    24
*Nset, nset=act_upper_side, instance=Piezo-1, generate
 232,  308,    1
*Elset, elset=act_upper_side, instance=Piezo-1, generate
 121,  180,    1
*Nset, nset=actuator_poin2, instance=Piezo-1
 256,
*Nset, nset=actuator_point1, instance=Piezo-1
 244,
*Nset, nset=sens_bottom_side, instance=Sensor-1, generate
    1,  1025,     1
*Elset, elset=sens_bottom_side, instance=Sensor-1, generate
   1,  960,    1
*Nset, nset=sens_upper_layer, instance=Sensor-1, generate
 3076,  4100,     1
*Elset, elset=sens_upper_layer, instance=Sensor-1, generate
 1921,  2880,     1
*Nset, nset=_PickedSet31, internal, instance=Cylinder-1
   40,   41,   43,   44,   54,   55,   56,   57,   69,   70,   71,   72,  522,  523,  534,  535
  540,  541,  542,  543,  544,  545,  637,  638,  649,  650,  655,  656,  657,  661,  662,  663
  781,  782,  783,  784,  785,  786,  787,  788,  789,  790,  791,  796,  797,  798,  799,  800
  801,  802,  803,  804,  805,  806,  807,  808,  809,  810,  811,  812,  813,  814,  815,  820
  821,  826,  827,  828, 2368, 2369, 2370, 2371, 2372, 2373, 2633, 2634, 2635, 2636, 2637, 2638
 3026, 3027, 3028, 3029, 3030, 3031, 3032, 3033, 3034, 3035, 3036, 3037, 3038, 3039, 3040, 3041
 3042, 3043, 3044, 3045, 3046, 3047, 3048, 3049, 3050, 3051, 3052, 3053, 3054, 3055, 3056, 3057
 3058, 3091, 3092, 3093, 3094, 3095, 3096, 3125, 3126, 3127, 3128, 3129, 3130
*Elset, elset=_PickedSet31, internal, instance=Cylinder-1
 2473, 2474, 2475, 2488, 2489, 2490, 2503, 2504, 2505, 2518, 2519, 2520, 2893, 2894, 2895, 2908
 2909, 2910, 2923, 2924, 2925, 2938, 2939, 2940, 3469, 3470, 3471, 3472, 3473, 3474, 3475, 3476
 3477, 3478, 3479, 3480, 3529, 3530, 3531, 3532, 3533, 3534, 3535, 3536, 3537, 3538, 3539, 3540
 3589, 3590, 3591, 3592, 3593, 3594, 3595, 3596, 3597, 3598, 3599, 3600, 3649, 3650, 3651, 3652
 3653, 3654, 3655, 3656, 3657, 3658, 3659, 3660, 3733, 3734, 3735, 3748, 3749, 3750, 3763, 3764
 3765, 3778, 3779, 3780, 3793, 3794, 3795, 3808, 3809, 3810, 3823, 3824, 3825, 3838, 3839, 3840
*Nset, nset=_PickedSet32, internal, instance=Cylinder-1
    3,    4,    6,    7,   29,   30,   32,   34,   46,   48,   60,   61,   79,   80,   91,   92
   97,   98,   99,  103,  104,  105,  401,  402,  403,  404,  405,  406,  407,  408,  409,  410
  411,  416,  417,  418,  419,  420,  421,  422,  423,  424,  425,  426,  431,  432,  433,  440
  441,  448,  449,  450,  451,  452,  555,  556,  563,  564,  565,  566,  567,  666,  667,  674
  675,  680,  681,  682,  875,  876,  877,  878,  879,  880, 2076, 2077, 2078, 2079, 2080, 2081
 2082, 2083, 2084, 2085, 2086, 2087, 2088, 2089, 2090, 2091, 2092, 2093, 2094, 2095, 2096, 2097
 2098, 2099, 2100, 2101, 2102, 2103, 2104, 2105, 2106, 2107, 2108, 2143, 2144, 2145, 2146, 2147
 2148, 2408, 2409, 2410, 2411, 2412, 2413, 2673, 2674, 2675, 2676, 2677, 2678
*Elset, elset=_PickedSet32, internal, instance=Cylinder-1
   13,   14,   15,   28,   29,   30,   43,   44,   45,   58,   59,   60, 1909, 1910, 1911, 1912
 1913, 1914, 1915, 1916, 1917, 1918, 1919, 1920, 1969, 1970, 1971, 1972, 1973, 1974, 1975, 1976
 1977, 1978, 1979, 1980, 2029, 2030, 2031, 2032, 2033, 2034, 2035, 2036, 2037, 2038, 2039, 2040
 2089, 2090, 2091, 2092, 2093, 2094, 2095, 2096, 2097, 2098, 2099, 2100, 2113, 2114, 2115, 2128
 2129, 2130, 2143, 2144, 2145, 2158, 2159, 2160, 2533, 2534, 2535, 2548, 2549, 2550, 2563, 2564
 2565, 2578, 2579, 2580, 2953, 2954, 2955, 2968, 2969, 2970, 2983, 2984, 2985, 2998, 2999, 3000
*Nset, nset=_PickedSet33, internal, instance=Cylinder-1
   59,   60,   61,   62,   63,   64,   65,   66,   67,   68,   71,   72,  668,  669,  670,  671
  676,  677,  678,  679,  680,  681,  682,  683,  684,  685,  688,  689,  690,  691,  694,  695
  696,  697,  698,  699,  700,  709,  710,  711,  712,  721,  722,  723,  724,  725,  726,  727
  728,  729,  730,  731,  732,  733,  734,  735,  736,  737,  738,  739,  740,  741,  742,  743
  744,  745,  746,  747,  748,  749,  750,  751,  752,  753,  754,  755,  756,  757,  758,  759
  760,  761,  762,  763,  764,  765,  766,  767,  768,  816,  817,  818,  819,  822,  823,  824
  825,  826,  827,  828, 2655, 2656, 2657, 2658, 2659, 2660, 2661, 2662, 2663, 2664, 2665, 2666
 2695, 2696, 2697, 2698, 2699, 2700, 2701, 2702, 2703, 2704, 2705, 2706, 2729, 2730, 2731, 2732
 2733, 2734, 2735, 2736, 2737, 2738, 2739, 2740, 2841, 2842, 2843, 2844, 2845, 2846, 2847, 2848
 2849, 2850, 2851, 2852, 2853, 2854, 2855, 2856, 2857, 2858, 2859, 2860, 2861, 2862, 2863, 2864
 2865, 2866, 2867, 2868, 2869, 2870, 2871, 2872, 2873, 2874, 2875, 2876, 2877, 2878, 2879, 2880
 2881, 2882, 2883, 2884, 2885, 2886, 2887, 2888, 2889, 2890, 2891, 2892, 2893, 2894, 2895, 2896
 2897, 3113, 3114, 3115, 3116, 3117, 3118, 3119, 3120, 3121, 3122, 3123, 3124
*Elset, elset=_PickedSet33, internal, instance=Cylinder-1
 2941, 2944, 2947, 2950, 2953, 2956, 2959, 2962, 2965, 2968, 2971, 2974, 2977, 2980, 2983, 2986
 2989, 2992, 2995, 2998, 3001, 3004, 3007, 3010, 3013, 3016, 3019, 3022, 3025, 3028, 3031, 3034
 3037, 3040, 3043, 3046, 3049, 3052, 3055, 3058, 3061, 3064, 3067, 3070, 3073, 3076, 3079, 3082
 3085, 3088, 3091, 3094, 3097, 3100, 3103, 3106, 3109, 3112, 3115, 3118, 3123, 3126, 3129, 3132
 3135, 3138, 3141, 3144, 3147, 3150, 3153, 3156, 3159, 3162, 3165, 3168, 3171, 3174, 3177, 3180
 3183, 3186, 3189, 3192, 3195, 3198, 3201, 3204, 3207, 3210, 3213, 3216, 3219, 3222, 3225, 3228
 3231, 3234, 3237, 3240, 3243, 3246, 3249, 3252, 3255, 3258, 3261, 3264, 3267, 3270, 3273, 3276
 3279, 3282, 3285, 3288, 3291, 3294, 3297, 3300, 3303, 3306, 3309, 3312, 3315, 3318, 3321, 3324
 3327, 3330, 3333, 3336, 3339, 3342, 3345, 3348, 3351, 3354, 3357, 3360, 3781, 3784, 3787, 3790
 3793, 3796, 3799, 3802, 3805, 3808, 3811, 3814, 3817, 3820, 3823, 3826, 3829, 3832, 3835, 3838
*Nset, nset=_PickedSet34, internal, instance=Cylinder-1
   45,   46,   47,   48,   49,   50,   51,   52,   53,   55,   57,   58,  551,  552,  553,  554
  559,  560,  561,  562,  565,  566,  567,  568,  569,  570,  575,  576,  577,  578,  579,  580
  581,  582,  583,  584,  585,  586,  587,  588,  589,  590,  591,  592,  593,  598,  599,  600
  601,  602,  603,  604,  605,  606,  607,  608,  609,  610,  611,  612,  613,  614,  615,  616
  617,  618,  619,  620,  621,  622,  623,  624,  625,  626,  627,  628,  629,  630,  639,  640
  641,  642,  651,  652,  653,  654,  655,  656,  657,  658,  659,  660,  769,  770,  771,  772
  773,  774,  775,  776, 2390, 2391, 2392, 2393, 2394, 2395, 2396, 2397, 2398, 2399, 2400, 2401
 2490, 2491, 2492, 2493, 2494, 2495, 2496, 2497, 2498, 2499, 2500, 2501, 2502, 2503, 2504, 2505
 2506, 2507, 2508, 2509, 2510, 2511, 2512, 2513, 2514, 2515, 2516, 2517, 2518, 2519, 2520, 2521
 2522, 2523, 2524, 2525, 2526, 2527, 2528, 2529, 2530, 2531, 2532, 2533, 2534, 2535, 2536, 2537
 2538, 2539, 2540, 2541, 2542, 2543, 2544, 2545, 2546, 2575, 2576, 2577, 2578, 2579, 2580, 2581
 2582, 2583, 2584, 2585, 2586, 2603, 2604, 2605, 2606, 2607, 2608, 2609, 2610, 2611, 2612, 2613
 2614, 2914, 2915, 2916, 2917, 2918, 2919, 2920, 2921, 2922, 2923, 2924, 2925
*Elset, elset=_PickedSet34, internal, instance=Cylinder-1
 2523, 2526, 2529, 2532, 2535, 2538, 2541, 2544, 2547, 2550, 2553, 2556, 2559, 2562, 2565, 2568
 2571, 2574, 2577, 2580, 2581, 2584, 2587, 2590, 2593, 2596, 2599, 2602, 2605, 2608, 2611, 2614
 2617, 2620, 2623, 2626, 2629, 2632, 2635, 2638, 2641, 2644, 2647, 2650, 2653, 2656, 2659, 2662
 2665, 2668, 2671, 2674, 2677, 2680, 2683, 2686, 2689, 2692, 2695, 2698, 2701, 2704, 2707, 2710
 2713, 2716, 2719, 2722, 2725, 2728, 2731, 2734, 2737, 2740, 2743, 2746, 2749, 2752, 2755, 2758
 2761, 2764, 2767, 2770, 2773, 2776, 2779, 2782, 2785, 2788, 2791, 2794, 2797, 2800, 2803, 2806
 2809, 2812, 2815, 2818, 2823, 2826, 2829, 2832, 2835, 2838, 2841, 2844, 2847, 2850, 2853, 2856
 2859, 2862, 2865, 2868, 2871, 2874, 2877, 2880, 2881, 2884, 2887, 2890, 2893, 2896, 2899, 2902
 2905, 2908, 2911, 2914, 2917, 2920, 2923, 2926, 2929, 2932, 2935, 2938, 3363, 3366, 3369, 3372
 3375, 3378, 3381, 3384, 3387, 3390, 3393, 3396, 3399, 3402, 3405, 3408, 3411, 3414, 3417, 3420
*Elset, elset="_Bottom Layer Cylinder_S2", internal, instance=Cylinder-1, generate
 2521,  2535,     1
*Surface, type=ELEMENT, name="Bottom Layer Cylinder"
"_Bottom Layer Cylinder_S2", S2
*Elset, elset="_Bottom Layer Piezo_S2", internal, instance=Piezo-1, generate
  1,  60,   1
*Surface, type=ELEMENT, name="Bottom Layer Piezo"
"_Bottom Layer Piezo_S2", S2
*Elset, elset=_CylinderSurface_S1, internal, instance=Cylinder-1
   46,   47,   48,   49,   50,   51,   52,   53,   54,   55,   56,   57,   58,   59,   60,  106
  107,  108,  109,  110,  111,  112,  113,  114,  115,  116,  117,  118,  119,  120,  301,  302
  303,  304,  305,  306,  307,  308,  309,  310,  311,  312,  313,  314,  315,  316,  317,  318
  319,  320,  321,  322,  323,  324,  325,  326,  327,  328,  329,  330,  331,  332,  333,  334
  335,  336,  337,  338,  339,  340,  341,  342,  343,  344,  345,  346,  347,  348,  349,  350
  351,  352,  353,  354,  355,  356,  357,  358,  359,  360, 1381, 1382, 1383, 1384, 1385, 1386
 1387, 1388, 1389, 1390, 1391, 1392, 1393, 1394, 1395, 1396, 1397, 1398, 1399, 1400, 1401, 1402
 1403, 1404, 1405, 1406, 1407, 1408, 1409, 1410, 1411, 1412, 1413, 1414, 1415, 1416, 1417, 1418
 1419, 1420, 1421, 1422, 1423, 1424, 1425, 1426, 1427, 1428, 1429, 1430, 1431, 1432, 1433, 1434
 1435, 1436, 1437, 1438, 1439, 1440, 1441, 1442, 1443, 1444, 1445, 1446, 1447, 1448, 1449, 1450
 1451, 1452, 1453, 1454, 1455, 1456, 1457, 1458, 1459, 1460, 1461, 1462, 1463, 1464, 1465, 1466
 1467, 1468, 1469, 1470, 1471, 1472, 1473, 1474, 1475, 1476, 1477, 1478, 1479, 1480, 1481, 1482
 1483, 1484, 1485, 1486, 1487, 1488, 1489, 1490, 1491, 1492, 1493, 1494, 1495, 1496, 1497, 1498
 1499, 1500, 1501, 1502, 1503, 1504, 1505, 1506, 1507, 1508, 1509, 1510, 1511, 1512, 1513, 1514
 1515, 1516, 1517, 1518, 1519, 1520, 1521, 1522, 1523, 1524, 1525, 1526, 1527, 1528, 1529, 1530
 1531, 1532, 1533, 1534, 1535, 1536, 1537, 1538, 1539, 1540, 1541, 1542, 1543, 1544, 1545, 1546
 1547, 1548, 1549, 1550, 1551, 1552, 1553, 1554, 1555, 1556, 1557, 1558, 1559, 1560, 1561, 1562
 1563, 1564, 1565, 1566, 1567, 1568, 1569, 1570, 1571, 1572, 1573, 1574, 1575, 1576, 1577, 1578
 1579, 1580, 1581, 1582, 1583, 1584, 1585, 1586, 1587, 1588, 1589, 1590, 1591, 1592, 1593, 1594
 1595, 1596, 1597, 1598, 1599, 1600, 1601, 1602, 1603, 1604, 1605, 1606, 1607, 1608, 1609, 1610
** ... 19 like lines cut
*Elset, elset=_CylinderSurface_S2, internal, instance=Cylinder-1
  361,  362,  363,  364,  365,  366,  367,  368,  369,  370,  371,  372,  373,  374,  375,  421
  422,  423,  424,  425,  426,  427,  428,  429,  430,  431,  432,  433,  434,  435,  436,  437
  438,  439,  440,  441,  442,  443,  444,  445,  446,  447,  448,  449,  450,  451,  452,  453
  454,  455,  456,  457,  458,  459,  460,  461,  462,  463,  464,  465,  466,  467,  468,  469
  470,  471,  472,  473,  474,  475,  476,  477,  478,  479,  480, 1621, 1622, 1623, 1624, 1625
 1626, 1627, 1628, 1629, 1630, 1631, 1632, 1633, 1634, 1635, 1636, 1637, 1638, 1639, 1640, 1641
 1642, 1643, 1644, 1645, 1646, 1647, 1648, 1649, 1650, 1651, 1652, 1653, 1654, 1655, 1656, 1657
 1658, 1659, 1660, 1661, 1662, 1663, 1664, 1665, 1666, 1667, 1668, 1669, 1670, 1671, 1672, 1673
 1674, 1675, 1676, 1677, 1678, 1679, 1680, 2101, 2102, 2103, 2104, 2105, 2106, 2107, 2108, 2109
 2110, 2111, 2112, 2113, 2114, 2115, 2221, 2222, 2223, 2224, 2225, 2226, 2227, 2228, 2229, 2230
 2231, 2232, 2233, 2234, 2235, 2236, 2237, 2238, 2239, 2240, 2241, 2242, 2243, 2244, 2245, 2246
 2247, 2248, 2249, 2250, 2251, 2252, 2253, 2254, 2255, 2256, 2257, 2258, 2259, 2260, 2261, 2262
 2263, 2264, 2265, 2266, 2267, 2268, 2269, 2270, 2271, 2272, 2273, 2274, 2275, 2276, 2277, 2278
 2279, 2280, 2821, 2822, 2823, 2824, 2825, 2826, 2827, 2828, 2829, 2830, 2831, 2832, 2833, 2834
 2835, 3001, 3002, 3003, 3004, 3005, 3006, 3007, 3008, 3009, 3010, 3011, 3012, 3013, 3014, 3015
 3061, 3062, 3063, 3064, 3065, 3066, 3067, 3068, 3069, 3070, 3071, 3072, 3073, 3074, 3075, 3361
 3362, 3363, 3364, 3365, 3366, 3367, 3368, 3369, 3370, 3371, 3372, 3373, 3374, 3375, 3421, 3422
 3423, 3424, 3425, 3426, 3427, 3428, 3429, 3430, 3431, 3432, 3433, 3434, 3435, 3436, 3437, 3438
 3439, 3440, 3441, 3442, 3443, 3444, 3445, 3446, 3447, 3448, 3449, 3450, 3451, 3452, 3453, 3454
 3455, 3456, 3457, 3458, 3459, 3460, 3461, 3462, 3463, 3464, 3465, 3466, 3467, 3468, 3469, 3470
 3471, 3472, 3473, 3474, 3475, 3476, 3477, 3478, 3479, 3480, 3781, 3782, 3783, 3784, 3785, 3786
 3787, 3788, 3789, 3790, 3791, 3792, 3793, 3794, 3795
*Surface, type=ELEMENT, name=CylinderSurface
_CylinderSurface_S1, S1
_CylinderSurface_S2, S2
*Elset, elset=_TOP_LAYER_ACTUATOR_S1, internal, instance=Piezo-1, generate
 121,  180,    1
*Surface, type=ELEMENT, name=TOP_LAYER_ACTUATOR
_TOP_LAYER_ACTUATOR_S1, S1
*Elset, elset="_Top Layer Cylinder_S1", internal, instance=Cylinder-1, generate
 2566,  2580,     1
*Surface, type=ELEMENT, name="Top Layer Cylinder"
"_Top Layer Cylinder_S1", S1
*Elset, elset="_Top Layer Piezo_S1", internal, instance=Sensor-1, generate
 1921,  2880,     1
*Surface, type=ELEMENT, name="Top Layer Piezo"
"_Top Layer Piezo_S1", S1
*Elset, elset=__PickedSurf40_S2, internal, instance=Cylinder-1, generate
 661,  900,    1
*Surface, type=ELEMENT, name=_PickedSurf40, internal
__PickedSurf40_S2, S2
*Elset, elset=__PickedSurf41_S1, internal, instance=Cylinder-1, generate
 1381,  1620,     1
*Surface, type=ELEMENT, name=_PickedSurf41, internal
__PickedSurf41_S1, S1
*Nset, nset=_T-Cylinder-1-CylindricalCoor, internal
_PickedSet31, 
_PickedSet32, 
_PickedSet33, 
_PickedSet34, 
*Transform, nset=_T-Cylinder-1-CylindricalCoor, type=C
          0.,           0.,          0.5,           0.,           0.,         -0.5
** Constraint: Constraint-1
*Tie, name=Constraint-1, adjust=yes, type=SURFACE TO SURFACE
_PickedSurf41, "Bottom Layer Piezo"
** Constraint: Constraint-2
*Tie, name=Constraint-2, adjust=yes, type=SURFACE TO SURFACE
"Top Layer Piezo", _PickedSurf40
*End Assembly
*Amplitude, name=Amp-4
             0.,              1.,           0.001,              0.,             0.5,              0.
*Amplitude, name=HOSTAMPLITUDE
             0.,              0.,            0.01,              0.,            0.02,            100.,            0.03,              0.
            80.,              0.
*Amplitude, name=PERIODIC, definition=PERIODIC
1,           1256.,              0.,              0.
             0.,              1.
*Amplitude, name=SURFACE_CHARGE, definition=USER, variables=10
** 
** MATERIALS
** 
*Material, name=Actuator
*Density
5300.,
*Dielectric, type=ORTHO
 1.96e-09, 2.01e-09,  2.8e-10
*Elastic, type=ORTHOTROPIC
 2.39e+11, 1.04e+11, 2.47e+11,  5.2e+10,  5.2e+10, 1.35e+11,  7.6e+10,  6.6e+10
  6.5e+10,
*Piezoelectric
 4.3, -0.4, -0.3,   0.,   0.,   0.,   0.,   0.
   0.,  3.4,   0.,   0.,   0.,   0.,   0.,   0.
  2.8,   0.
*Material, name=Host
*Density
7800.,
*Elastic, type=ORTHOTROPIC
 2.8269e+11, 1.2115e+11, 2.8269e+11, 1.2115e+11, 1.2115e+11, 2.8269e+11,  8.077e+10,  8.077e+10
  8.077e+10,
*Material, name=Sens
*Density
7500.,
*Dielectric, type=ORTHO
 6.56e-09, 6.51e-09,  5.6e-10
*Elastic, type=ORTHOTROPIC
 1.39e+11,  7.8e+10, 1.39e+11, 7.43e+10, 7.43e+10, 1.55e+11, 3.06e+10, 2.56e+10
 2.56e+10,
*Piezoelectric
 15.1, -5.2, -5.2,   0.,   0.,   0.,   0.,   0.
   0., 12.7,   0.,   0.,   0.,   0.,   0.,   0.
 12.7,   0.
** 
** BOUNDARY CONDITIONS
** 
** Name: BC-1 Type: Symmetry/Antisymmetry/Encastre
*Boundary
_PickedSet31, ENCASTRE
** Name: BC-2 Type: Symmetry/Antisymmetry/Encastre
*Boundary
_PickedSet32, ENCASTRE
** Name: BC-3 Type: Symmetry/Antisymmetry/Encastre
*Boundary
_PickedSet33, ENCASTRE
** Name: BC-4 Type: Symmetry/Antisymmetry/Encastre
*Boundary
_PickedSet34, ENCASTRE
** Name: BC-5 Type: Electric potential
*Boundary
act_lower_layer, 9, 9
** Name: BC-6 Type: Electric potential
*Boundary
sens_upper_layer, 9, 9
** ----------------------------------------------------------------
** 
** STEP: Step-1
** 
*Step, name=Step-1, nlgeom=NO, inc=1000000000
*Dynamic
1e-13,0.5,1e-13,1e-05
** 
** BOUNDARY CONDITIONS
** 
** Name: BC-7 Type: Electric potential
*Boundary, amplitude=SURFACE_CHARGE
act_upper_side, 9, 9, 1.
** 
** LOADS
** 
** Name: Load-1   Type: Pressure
*Dsload, amplitude=Amp-4
CylinderSurface, P, 1e+08
** 
** OUTPUT REQUESTS
** 
*Restart, write, frequency=0
** 
** FIELD OUTPUT: F-Output-1
** 
*Output, field
*Node Output
EPOT, U
** 
** HISTORY OUTPUT: SENU1
** 
*Output, history, sensor, name=SENU1, frequency=1
*Node Output, nset=SENSOR_POINT_1
EPOT, 
** 
** HISTORY OUTPUT: SENU10
** 
*Output, history, sensor, name=SENU10, frequency=1
*Node Output, nset=SENSOR_POINT_10
EPOT, 
** 
** HISTORY OUTPUT: SENU11
** 
*Output, history, sensor, name=SENU11, frequency=1
*Node Output, nset=SENSOR_POINT_11
EPOT, 
** 
** HISTORY OUTPUT: SENU12
** 
*Output, history, sensor, name=SENU12, frequency=1
*Node Output, nset=SENSOR_POINT_12
EPOT, 
** 
** HISTORY OUTPUT: SENU13
** 
*Output, history, sensor, name=SENU13, frequency=1
*Node Output, nset=SENSOR_POINT_13
EPOT, 
** 
** HISTORY OUTPUT: SENU14
** 
*Output, history, sensor, name=SENU14, frequency=1
*Node Output, nset=SENSOR_POINT_14
EPOT, 
** 
** HISTORY OUTPUT: SENU15
** 
*Output, history, sensor, name=SENU15, frequency=1
*Node Output, nset=SENSOR_POINT_15
EPOT, 
** 
** HISTORY OUTPUT: SENU16
** 
*Output, history, sensor, name=SENU16, frequency=1
*Node Output, nset=SENSOR_POINT_16
EPOT, 
** 
** HISTORY OUTPUT: SENU17
** 
*Output, history, sensor, name=SENU17, frequency=1
*Node Output, nset=SENSOR_POINT_17
EPOT, 
** 
** HISTORY OUTPUT: SENU18
** 
*Output, history, sensor, name=SENU18, frequency=1
*Node Output, nset=SENSOR_POINT_18
EPOT, 
** 
** HISTORY OUTPUT: SENU2
** 
*Output, history, sensor, name=SENU2, frequency=1
*Node Output, nset=SENSOR_POINT_2
EPOT, 
** 
** HISTORY OUTPUT: SENU3
** 
*Output, history, sensor, name=SENU3, frequency=1
*Node Output, nset=SENSOR_POINT_3
EPOT, 
** 
** HISTORY OUTPUT: SENU4
** 
*Output, history, sensor, name=SENU4, frequency=1
*Node Output, nset=SENSOR_POINT_4
EPOT, 
** 
** HISTORY OUTPUT: SENU5
** 
*Output, history, sensor, name=SENU5, frequency=1
*Node Output, nset=SENSOR_POINT_5
EPOT, 
** 
** HISTORY OUTPUT: SENU6
** 
*Output, history, sensor, name=SENU6, frequency=1
*Node Output, nset=SENSOR_POINT_6
EPOT, 
** 
** HISTORY OUTPUT: SENU7
** 
*Output, history, sensor, name=SENU7, frequency=1
*Node Output, nset=SENSOR_POINT_7
EPOT, 
** 
** HISTORY OUTPUT: SENU8
** 
*Output, history, sensor, name=SENU8, frequency=1
*Node Output, nset=SENSOR_POINT_8
EPOT, 
** 
** HISTORY OUTPUT: SENU9
** 
*Output, history, sensor, name=SENU9, frequency=1
*Node Output, nset=SENSOR_POINT_9
EPOT, 
** 
** HISTORY OUTPUT: H-Output-5
** 
*Output, history, frequency=1
*Node Output, nset=Cylinder-1.Set-1
U1, U2, U3, UR1, UR2, UR3
** 
** HISTORY OUTPUT: ACTU2
** 
*Node Output, nset=actuator_poin2
EPOT, U1, U2, U3, UR1, UR2, UR3
** 
** HISTORY OUTPUT: ACTU1
** 
*Node Output, nset=actuator_point1
EPOT, U1, U2, U3, UR1, UR2, UR3
** 
** HISTORY OUTPUT: H-Output-1
** 
*Output, history, frequency=1000
*Energy Output
ETOTAL, 
*End Step
