1

   Abaqus 6.13-1                                  Date 18-Feb-2016   Time 13:33:02
   For use by  under license from Dassault Systemes or its subsidiary.

                                                                                 
                                                                                 
 STEP    1     INCREMENT     1     STEP TIME    0.00    


                        S T E P       1     D Y N A M I C   A N A L Y S I S - I M P L I C I T  I N T E G R A T I O N


                                                                                          

          DYNAMIC APPLICATION PACKED SCHEME IS                 TRANSIENT FIDELITY  
          HILBER-HUGHES-TAYLOR (HHT) TIME INTEGRATOR IS USED

     AUTOMATIC TIME CONTROL WITH -
          A SUGGESTED INITIAL TIME INCREMENT OF                1.000E-13
          AND A TOTAL TIME PERIOD OF                           0.500    
          THE MINIMUM TIME INCREMENT ALLOWED IS                1.000E-13
          THE MAXIMUM TIME INCREMENT ALLOWED IS                1.000E-05
          SCALE FACTOR ON TIME AVERAGE FORCE FOR HALF-
           -INCREMENT RESIDUAL COMPUTATIONS IS                 1.000E+03

          HILBER-HUGHES-TAYLOR METHOD PARAMETERS:  ALPHA   IS  -5.000000E-02
                                                   BETA    IS   0.275625    
                                                   GAMMA   IS   0.550000    
          SINGULAR MASS TREATMENT TYPE IS                     ERROR
          CONSERVATIVE TIME INCREMENTATION IS USED
          STEP AMPLITUDE IS                                    STEP

 CONVERGENCE TOLERANCE PARAMETERS FOR FORCE    
     CRITERION FOR RESIDUAL FORCE     FOR A NONLINEAR PROBLEM          5.000E-03
     CRITERION FOR DISP.    CORRECTION IN A NONLINEAR PROBLEM          1.000E-02
     INITIAL VALUE OF TIME AVERAGE FORCE                               1.000E-02
     AVERAGE FORCE     IS TIME AVERAGE FORCE    
     ALTERNATE CRIT. FOR RESIDUAL FORCE     FOR A NONLINEAR PROBLEM    2.000E-02
     CRITERION FOR ZERO FORCE     RELATIVE TO TIME AVRG. FORCE         1.000E-05
     CRITERION FOR RESIDUAL FORCE     WHEN THERE IS ZERO FLUX          1.000E-05
     CRITERION FOR DISP.    CORRECTION WHEN THERE IS ZERO FLUX         1.000E-03
     CRITERION FOR RESIDUAL FORCE     FOR A LINEAR INCREMENT           1.000E-08
     FIELD CONVERSION RATIO                                             1.00    
     CRITERION FOR ZERO FORCE     REL. TO TIME AVRG. MAX. FORCE        1.000E-05
     CRITERION FOR ZERO DISP.    RELATIVE TO CHARACTERISTIC LENGTH     1.000E-08

 CONVERGENCE TOLERANCE PARAMETERS FOR CHARGE   
     CRITERION FOR RESIDUAL CHARGE    FOR A NONLINEAR PROBLEM          5.000E-03
     CRITERION FOR E. POT.  CORRECTION IN A NONLINEAR PROBLEM          1.000E-02
     INITIAL VALUE OF TIME AVERAGE CHARGE                              1.000E-02
     AVERAGE CHARGE    IS TIME AVERAGE CHARGE   
     ALTERNATE CRIT. FOR RESIDUAL CHARGE    FOR A NONLINEAR PROBLEM    2.000E-02
     CRITERION FOR ZERO CHARGE    RELATIVE TO TIME AVRG. CHARGE        1.000E-05
     CRITERION FOR RESIDUAL CHARGE    WHEN THERE IS ZERO FLUX          1.000E-05
     CRITERION FOR E. POT.  CORRECTION WHEN THERE IS ZERO FLUX         1.000E-03
     CRITERION FOR RESIDUAL CHARGE    FOR A LINEAR INCREMENT           1.000E-08
     FIELD CONVERSION RATIO                                             1.00    
     CRITERION FOR ZERO CHARGE    REL. TO TIME AVRG. MAX. CHARGE       1.000E-05

     VOLUMETRIC STRAIN COMPATIBILITY TOLERANCE FOR HYBRID SOLIDS       1.000E-05
     AXIAL STRAIN COMPATIBILITY TOLERANCE FOR HYBRID BEAMS             1.000E-05
     TRANS. SHEAR STRAIN COMPATIBILITY TOLERANCE FOR HYBRID BEAMS      1.000E-05
     SOFT CONTACT CONSTRAINT COMPATIBILITY TOLERANCE FOR P>P0          5.000E-03
     SOFT CONTACT CONSTRAINT COMPATIBILITY TOLERANCE FOR P=0.0         0.100    
     CONTACT FORCE ERROR TOLERANCE FOR CONVERT SDI=YES                 1.00    
     DISPLACEMENT COMPATIBILITY TOLERANCE FOR DCOUP ELEMENTS           1.000E-05
     ROTATION COMPATIBILITY TOLERANCE FOR DCOUP ELEMENTS               1.000E-05

 EQUILIBRIUM WILL BE CHECKED FOR SEVERE DISCONTINUITY ITERATIONS

 TIME INCREMENTATION CONTROL PARAMETERS:
     FIRST EQUILIBRIUM ITERATION FOR CONSECUTIVE DIVERGENCE CHECK              4
     EQUILIBRIUM ITERATION AT WHICH LOG. CONVERGENCE RATE CHECK BEGINS         8
     EQUILIBRIUM ITERATION AFTER WHICH ALTERNATE RESIDUAL IS USED              9
     MAXIMUM EQUILIBRIUM ITERATIONS ALLOWED                                   16
     EQUILIBRIUM ITERATION COUNT FOR CUT-BACK IN NEXT INCREMENT               10
     MAXIMUM EQUILIB. ITERS IN TWO INCREMENTS FOR TIME INCREMENT INCREASE      4
     MAXIMUM ITERATIONS FOR SEVERE DISCONTINUITIES                            50
     MAXIMUM CUT-BACKS ALLOWED IN AN INCREMENT                                 5
     MAXIMUM DISCON. ITERS IN TWO INCREMENTS FOR TIME INCREMENT INCREASE      50
     MAXIMUM CONTACT AUGMENTATIONS FOR *SURFACE BEHAVIOR,AUGMENTED LAGRANGE   50
     CONSECUTIVE INCS MEETING TIME INTEG. TOL. FOR TIME INC. INCREASE          3
     CUT-BACK FACTOR AFTER DIVERGENCE                                 0.2500    
     CUT-BACK FACTOR FOR TOO SLOW CONVERGENCE                         0.5000    
     CUT-BACK FACTOR AFTER TOO MANY EQUILIBRIUM ITERATIONS            0.7500    
     CUT-BACK FACTOR AFTER TOO MANY SEVERE DISCONTINUITY ITERATIONS   0.2500    
     CUT-BACK FACTOR AFTER PROBLEMS IN ELEMENT ASSEMBLY               0.2500    
     INCREASE FACTOR AFTER TWO INCREMENTS THAT CONVERGE QUICKLY        1.500    
     MAX. TIME INCREMENT INCREASE FACTOR ALLOWED                       1.500    
     MAX. TIME INCREMENT INCREASE FACTOR ALLOWED (DYNAMICS)            1.250    
     MAX. TIME INCREMENT INCREASE FACTOR ALLOWED (DIFFUSION)           2.000    
     MINIMUM TIME INCREMENT RATIO FOR EXTRAPOLATION TO OCCUR          0.1000    
     CUT-BACK FACTOR WHEN TIME INTEGRATION ACCURACY TOL. EXCEEDED     0.8500    
     MAX. RATIO OF TIME INTEG. MEASURE TO TOL. FOR TIME INC. INCREASE 0.7500    
     INCREASE FACTOR FOR TIME INCREMENT WHEN POSSIBLE                 0.8000    
     MIN. TIME INC. INCREASE FACTOR IN LINEAR TRANSIENT PROBLEMS      0.9500    
     MAX. RATIO OF TIME INCREMENT TO STABILITY LIMIT                   1.000    
     FRACTION OF STABILITY LIMIT FOR NEW TIME INCREMENT               0.9500    
     TIME INCREMENT INCREASE FACTOR BEFORE A TIME POINT                1.000    
     GLOBAL STABILIZATION CONTROL IS NOT USED

          PRINT OF INCREMENT NUMBER, TIME, ETC., EVERY    1  INCREMENTS

     THE MAXIMUM NUMBER OF INCREMENTS IN THIS STEP IS                 *******

     VELOCITY-BASED PARABOLIC EXTRAPOLATION WILL BE USED

     CHARACTERISTIC ELEMENT LENGTH     1.208E-02

     DETAILS REGARDING ACTUAL SOLUTION WAVEFRONT REQUESTED

     DETAILED OUTPUT OF DIAGNOSTICS TO DATABASE REQUESTED

     PRINT OF INCREMENT NUMBER, TIME, ETC., TO THE MESSAGE FILE EVERY     1  INCREMENTS

     ELEMENT OPERATIONS WILL BE CARRIED OUT IN PARALLEL USING   8 PROCESSORS

     PARALLEL CONTACT TRACKING ENABLED


     EQUATIONS ARE BEING REORDERED TO MINIMIZE WAVEFRONT

     COLLECTING MODEL CONSTRAINT INFORMATION FOR OVERCONSTRAINT CHECKS

     COLLECTING STEP CONSTRAINT INFORMATION FOR OVERCONSTRAINT CHECKS

  NUMBER OF EQUATIONS =    25884     NUMBER OF FLOATING PT. OPERATIONS =  4.53E+09

  USING THE DIRECT SOLVER WITH   8 PROCESSORS

     CHECK POINT   START OF SOLVER    

     CHECK POINT  END OF SOLVER       

       ELAPSED USER TIME (SEC)      =   1.7000    
       ELAPSED SYSTEM TIME (SEC)    =  0.10000    
       ELAPSED TOTAL CPU TIME (SEC) =   1.8000    
       ELAPSED WALLCLOCK TIME (SEC) =          1

  NUMBER OF EQUATIONS =    25884     NUMBER OF FLOATING PT. OPERATIONS =  4.53E+09

  USING THE DIRECT SOLVER WITH   8 PROCESSORS

     CHECK POINT   START OF SOLVER    

     CHECK POINT  END OF SOLVER       

       ELAPSED USER TIME (SEC)      =   1.5000    
       ELAPSED SYSTEM TIME (SEC)    =   0.0000    
       ELAPSED TOTAL CPU TIME (SEC) =   1.5000    
       ELAPSED WALLCLOCK TIME (SEC) =          1


  INCREMENT     1 STARTS. ATTEMPT NUMBER  1, TIME INCREMENT  1.000E-13
 
     INITIAL ELEMENT LOAD BALANCE
        COMPUTE NODE   1   PROCESS    NUMBER OF ELEMENTS
                              1            1024
                              2            768
                              3            768
                              4            768
                              5            1024
                              6            768
                              7            1012
                              8            768

  NUMBER OF EQUATIONS =    29113     NUMBER OF FLOATING PT. OPERATIONS =  5.77E+09

  USING THE DIRECT SOLVER WITH   8 PROCESSORS

     CHECK POINT   START OF SOLVER    

     CHECK POINT  END OF SOLVER       

       ELAPSED USER TIME (SEC)      =   2.3000    
       ELAPSED SYSTEM TIME (SEC)    =  0.20000    
       ELAPSED TOTAL CPU TIME (SEC) =   2.5000    
       ELAPSED WALLCLOCK TIME (SEC) =          0

               CONVERGENCE CHECKS FOR EQUILIBRIUM ITERATION     1


 AVERAGE FORCE                      3.267E+03   TIME AVG. FORCE       3.267E+03
 LARGEST RESIDUAL FORCE             1.019E-10   AT NODE       2685   DOF  2
   INSTANCE: CYLINDER-1                                                                      
 LARGEST INCREMENT OF DISP.        -1.719E-20   AT NODE       1206   DOF  2
   INSTANCE: CYLINDER-1                                                                      
 LARGEST CORRECTION TO DISP.       -1.719E-20   AT NODE       1206   DOF  2
   INSTANCE: CYLINDER-1                                                                      
          THE FORCE     EQUILIBRIUM RESPONSE WAS LINEAR IN THIS INCREMENT

 AVERAGE CHARGE                     7.185E-23   TIME AVG. CHARGE      1.000E-02
 LARGEST RESIDUAL CHARGE           -7.313E-22   AT NODE         86   DOF  9
   INSTANCE: PIEZO-1                                                                         
 LARGEST INCREMENT OF E. POT.       2.337E-11   AT NODE        148   DOF  9
   INSTANCE: PIEZO-1                                                                         
 LARGEST CORRECTION TO E. POT.      2.337E-11   AT NODE        148   DOF  9
   INSTANCE: PIEZO-1                                                                         
          THERE IS ZERO CHARGE    EVERYWHERE
 

 ***WARNING: THERE IS ZERO CHARGE EVERYWHERE IN THE MODEL BASED ON THE DEFAULT 
             CRITERION. PLEASE CHECK THE VALUE OF THE AVERAGE CHARGE DURING THE 
             CURRENT ITERATION TO VERIFY THAT THE CHARGE IS SMALL ENOUGH TO BE 
             TREATED AS ZERO. IF NOT, PLEASE USE THE SOLUTION CONTROLS TO RESET 
             THE CRITERION FOR ZERO CHARGE.

  MAXIMUM HALF-INCREMENT FORCE RESIDUAL IS   6.918E-06 AND OCCURS AT NODE       2161 INSTANCE CYLINDER-1                                                                      

 ITERATION SUMMARY FOR THE INCREMENT:   1 TOTAL ITERATIONS, OF WHICH
   0 ARE SEVERE DISCONTINUITY ITERATIONS AND  1 ARE EQUILIBRIUM ITERATIONS.

 TIME INCREMENT COMPLETED  1.000E-13,  FRACTION OF STEP COMPLETED  2.000E-13
 STEP TIME COMPLETED       1.000E-13,  TOTAL TIME COMPLETED        1.000E-13


  INCREMENT     2 STARTS. ATTEMPT NUMBER  1, TIME INCREMENT  1.000E-13

  NUMBER OF EQUATIONS =    29113     NUMBER OF FLOATING PT. OPERATIONS =  5.77E+09

  USING THE DIRECT SOLVER WITH   8 PROCESSORS

     CHECK POINT   START OF SOLVER    

     CHECK POINT  END OF SOLVER       

       ELAPSED USER TIME (SEC)      =   3.4000    
       ELAPSED SYSTEM TIME (SEC)    =   0.0000    
       ELAPSED TOTAL CPU TIME (SEC) =   3.4000    
       ELAPSED WALLCLOCK TIME (SEC) =          1

               CONVERGENCE CHECKS FOR EQUILIBRIUM ITERATION     1


 AVERAGE FORCE                      3.267E+03   TIME AVG. FORCE       3.267E+03
 LARGEST RESIDUAL FORCE             1.683E-10   AT NODE        528   DOF  2
   INSTANCE: CYLINDER-1                                                                      
 LARGEST INCREMENT OF DISP.        -5.158E-20   AT NODE       1206   DOF  2
   INSTANCE: CYLINDER-1                                                                      
 LARGEST CORRECTION TO DISP.        1.685E-30   AT NODE       1206   DOF  2
   INSTANCE: CYLINDER-1                                                                      
          THE FORCE     EQUILIBRIUM RESPONSE WAS LINEAR IN THIS INCREMENT

 AVERAGE CHARGE                     2.874E-22   TIME AVG. CHARGE      1.000E-02
 LARGEST RESIDUAL CHARGE            7.195E-32   AT NODE        142   DOF  9
   INSTANCE: PIEZO-1                                                                         
 LARGEST INCREMENT OF E. POT.       7.503E-11   AT NODE        148   DOF  9
   INSTANCE: PIEZO-1                                                                         
 LARGEST CORRECTION TO E. POT.      5.132E-12   AT NODE        148   DOF  9
   INSTANCE: PIEZO-1                                                                         
          THERE IS ZERO CHARGE    EVERYWHERE
 

 ***WARNING: THERE IS ZERO CHARGE EVERYWHERE IN THE MODEL BASED ON THE DEFAULT 
             CRITERION. PLEASE CHECK THE VALUE OF THE AVERAGE CHARGE DURING THE 
             CURRENT ITERATION TO VERIFY THAT THE CHARGE IS SMALL ENOUGH TO BE 
             TREATED AS ZERO. IF NOT, PLEASE USE THE SOLUTION CONTROLS TO RESET 
             THE CRITERION FOR ZERO CHARGE.

  MAXIMUM HALF-INCREMENT FORCE RESIDUAL IS   6.918E-06 AND OCCURS AT NODE        892 INSTANCE CYLINDER-1                                                                      

 ITERATION SUMMARY FOR THE INCREMENT:   1 TOTAL ITERATIONS, OF WHICH
   0 ARE SEVERE DISCONTINUITY ITERATIONS AND  1 ARE EQUILIBRIUM ITERATIONS.

 TIME INCREMENT COMPLETED  1.000E-13,  FRACTION OF STEP COMPLETED  4.000E-13
 STEP TIME COMPLETED       2.000E-13,  TOTAL TIME COMPLETED        2.000E-13


  INCREMENT     3 STARTS. ATTEMPT NUMBER  1, TIME INCREMENT  1.000E-13

  NUMBER OF EQUATIONS =    29113     NUMBER OF FLOATING PT. OPERATIONS =  5.77E+09

  USING THE DIRECT SOLVER WITH   8 PROCESSORS

     CHECK POINT   START OF SOLVER    

     CHECK POINT  END OF SOLVER       

       ELAPSED USER TIME (SEC)      =  0.30000    
       ELAPSED SYSTEM TIME (SEC)    =   0.0000    
       ELAPSED TOTAL CPU TIME (SEC) =  0.30000    
       ELAPSED WALLCLOCK TIME (SEC) =          0

               CONVERGENCE CHECKS FOR EQUILIBRIUM ITERATION     1


 AVERAGE FORCE                      3.267E+03   TIME AVG. FORCE       3.267E+03
 LARGEST RESIDUAL FORCE            -3.208E-10   AT NODE         77   DOF  2
   INSTANCE: PIEZO-1                                                                         
 LARGEST INCREMENT OF DISP.        -8.597E-20   AT NODE       1206   DOF  2
   INSTANCE: CYLINDER-1                                                                      
 LARGEST CORRECTION TO DISP.        1.724E-30   AT NODE       1847   DOF  2
   INSTANCE: CYLINDER-1                                                                      
          THE FORCE     EQUILIBRIUM RESPONSE WAS LINEAR IN THIS INCREMENT

 AVERAGE CHARGE                     6.467E-22   TIME AVG. CHARGE      1.000E-02
 LARGEST RESIDUAL CHARGE            7.389E-32   AT NODE         86   DOF  9
   INSTANCE: PIEZO-1                                                                         
 LARGEST INCREMENT OF E. POT.       1.230E-10   AT NODE        148   DOF  9
   INSTANCE: PIEZO-1                                                                         
 LARGEST CORRECTION TO E. POT.     -8.949E-12   AT NODE        148   DOF  9
   INSTANCE: PIEZO-1                                                                         
          THERE IS ZERO CHARGE    EVERYWHERE
 

 ***WARNING: THERE IS ZERO CHARGE EVERYWHERE IN THE MODEL BASED ON THE DEFAULT 
             CRITERION. PLEASE CHECK THE VALUE OF THE AVERAGE CHARGE DURING THE 
             CURRENT ITERATION TO VERIFY THAT THE CHARGE IS SMALL ENOUGH TO BE 
             TREATED AS ZERO. IF NOT, PLEASE USE THE SOLUTION CONTROLS TO RESET 
             THE CRITERION FOR ZERO CHARGE.

  MAXIMUM HALF-INCREMENT FORCE RESIDUAL IS   6.918E-06 AND OCCURS AT NODE       1123 INSTANCE CYLINDER-1                                                                      
          TIME INCREMENT MAY NOW INCREASE TO    1.250E-13

 ITERATION SUMMARY FOR THE INCREMENT:   1 TOTAL ITERATIONS, OF WHICH
   0 ARE SEVERE DISCONTINUITY ITERATIONS AND  1 ARE EQUILIBRIUM ITERATIONS.

 TIME INCREMENT COMPLETED  1.000E-13,  FRACTION OF STEP COMPLETED  6.000E-13
 STEP TIME COMPLETED       3.000E-13,  TOTAL TIME COMPLETED        3.000E-13


  INCREMENT     4 STARTS. ATTEMPT NUMBER  1, TIME INCREMENT  1.250E-13

  NUMBER OF EQUATIONS =    29113     NUMBER OF FLOATING PT. OPERATIONS =  5.77E+09

  USING THE DIRECT SOLVER WITH   8 PROCESSORS

     CHECK POINT   START OF SOLVER    

     CHECK POINT  END OF SOLVER       

       ELAPSED USER TIME (SEC)      =   2.3000    
       ELAPSED SYSTEM TIME (SEC)    =  0.10000    
       ELAPSED TOTAL CPU TIME (SEC) =   2.4000    
       ELAPSED WALLCLOCK TIME (SEC) =          0

               CONVERGENCE CHECKS FOR EQUILIBRIUM ITERATION     1


 AVERAGE FORCE                      3.267E+03   TIME AVG. FORCE       3.267E+03
 LARGEST RESIDUAL FORCE            -3.247E-10   AT NODE       2160   DOF  2
   INSTANCE: CYLINDER-1                                                                      
 LARGEST INCREMENT OF DISP.        -1.558E-19   AT NODE       1206   DOF  2
   INSTANCE: CYLINDER-1                                                                      
 LARGEST CORRECTION TO DISP.        3.046E-30   AT NODE       1208   DOF  2
   INSTANCE: CYLINDER-1                                                                      
          THE FORCE     EQUILIBRIUM RESPONSE WAS LINEAR IN THIS INCREMENT

 AVERAGE CHARGE                     1.298E-21   TIME AVG. CHARGE      1.000E-02
 LARGEST RESIDUAL CHARGE            1.311E-31   AT NODE        142   DOF  9
   INSTANCE: PIEZO-1                                                                         
 LARGEST INCREMENT OF E. POT.       2.229E-10   AT NODE        148   DOF  9
   INSTANCE: PIEZO-1                                                                         
 LARGEST CORRECTION TO E. POT.      1.435E-11   AT NODE        148   DOF  9
   INSTANCE: PIEZO-1                                                                         
          THERE IS ZERO CHARGE    EVERYWHERE
 

 ***WARNING: THERE IS ZERO CHARGE EVERYWHERE IN THE MODEL BASED ON THE DEFAULT 
             CRITERION. PLEASE CHECK THE VALUE OF THE AVERAGE CHARGE DURING THE 
             CURRENT ITERATION TO VERIFY THAT THE CHARGE IS SMALL ENOUGH TO BE 
             TREATED AS ZERO. IF NOT, PLEASE USE THE SOLUTION CONTROLS TO RESET 
             THE CRITERION FOR ZERO CHARGE.

  MAXIMUM HALF-INCREMENT FORCE RESIDUAL IS   8.648E-06 AND OCCURS AT NODE        434 INSTANCE CYLINDER-1                                                                      
          TIME INCREMENT MAY NOW INCREASE TO    1.562E-13

 ITERATION SUMMARY FOR THE INCREMENT:   1 TOTAL ITERATIONS, OF WHICH
   0 ARE SEVERE DISCONTINUITY ITERATIONS AND  1 ARE EQUILIBRIUM ITERATIONS.

 TIME INCREMENT COMPLETED  1.250E-13,  FRACTION OF STEP COMPLETED  8.500E-13
 STEP TIME COMPLETED       4.250E-13,  TOTAL TIME COMPLETED        4.250E-13


  INCREMENT     5 STARTS. ATTEMPT NUMBER  1, TIME INCREMENT  1.562E-13

  NUMBER OF EQUATIONS =    29113     NUMBER OF FLOATING PT. OPERATIONS =  5.77E+09

  USING THE DIRECT SOLVER WITH   8 PROCESSORS

     CHECK POINT   START OF SOLVER    

     CHECK POINT  END OF SOLVER       

       ELAPSED USER TIME (SEC)      =   2.0000    
       ELAPSED SYSTEM TIME (SEC)    =   0.0000    
       ELAPSED TOTAL CPU TIME (SEC) =   2.0000    
       ELAPSED WALLCLOCK TIME (SEC) =          0

               CONVERGENCE CHECKS FOR EQUILIBRIUM ITERATION     1


 AVERAGE FORCE                      3.267E+03   TIME AVG. FORCE       3.267E+03
 LARGEST RESIDUAL FORCE            -4.475E-10   AT NODE       2903   DOF  2
   INSTANCE: CYLINDER-1                                                                      
 LARGEST INCREMENT OF DISP.        -2.703E-19   AT NODE       1206   DOF  2
   INSTANCE: CYLINDER-1                                                                      
 LARGEST CORRECTION TO DISP.        5.927E-30   AT NODE       1208   DOF  2
   INSTANCE: CYLINDER-1                                                                      
          THE FORCE     EQUILIBRIUM RESPONSE WAS LINEAR IN THIS INCREMENT

 AVERAGE CHARGE                     2.428E-21   TIME AVG. CHARGE      1.000E-02
 LARGEST RESIDUAL CHARGE            2.563E-31   AT NODE         90   DOF  9
   INSTANCE: PIEZO-1                                                                         
 LARGEST INCREMENT OF E. POT.       3.868E-10   AT NODE        148   DOF  9
   INSTANCE: PIEZO-1                                                                         
 LARGEST CORRECTION TO E. POT.     -1.779E-11   AT NODE        148   DOF  9
   INSTANCE: PIEZO-1                                                                         
          THERE IS ZERO CHARGE    EVERYWHERE
 

 ***WARNING: THERE IS ZERO CHARGE EVERYWHERE IN THE MODEL BASED ON THE DEFAULT 
             CRITERION. PLEASE CHECK THE VALUE OF THE AVERAGE CHARGE DURING THE 
             CURRENT ITERATION TO VERIFY THAT THE CHARGE IS SMALL ENOUGH TO BE 
             TREATED AS ZERO. IF NOT, PLEASE USE THE SOLUTION CONTROLS TO RESET 
             THE CRITERION FOR ZERO CHARGE.

  MAXIMUM HALF-INCREMENT FORCE RESIDUAL IS   1.081E-05 AND OCCURS AT NODE        843 INSTANCE CYLINDER-1                                                                      
          TIME INCREMENT MAY NOW INCREASE TO    1.953E-13

 ITERATION SUMMARY FOR THE INCREMENT:   1 TOTAL ITERATIONS, OF WHICH
   0 ARE SEVERE DISCONTINUITY ITERATIONS AND  1 ARE EQUILIBRIUM ITERATIONS.

 TIME INCREMENT COMPLETED  1.562E-13,  FRACTION OF STEP COMPLETED  1.162E-12
 STEP TIME COMPLETED       5.812E-13,  TOTAL TIME COMPLETED        5.812E-13


  INCREMENT     6 STARTS. ATTEMPT NUMBER  1, TIME INCREMENT  1.953E-13

  NUMBER OF EQUATIONS =    29113     NUMBER OF FLOATING PT. OPERATIONS =  5.77E+09

  USING THE DIRECT SOLVER WITH   8 PROCESSORS

     CHECK POINT   START OF SOLVER    

     CHECK POINT  END OF SOLVER       

       ELAPSED USER TIME (SEC)      =   1.9000    
       ELAPSED SYSTEM TIME (SEC)    =  0.10000    
       ELAPSED TOTAL CPU TIME (SEC) =   2.0000    
       ELAPSED WALLCLOCK TIME (SEC) =          0

               CONVERGENCE CHECKS FOR EQUILIBRIUM ITERATION     1


 AVERAGE FORCE                      3.267E+03   TIME AVG. FORCE       3.267E+03
 LARGEST RESIDUAL FORCE             3.911E-10   AT NODE       2898   DOF  2
   INSTANCE: CYLINDER-1                                                                      
 LARGEST INCREMENT OF DISP.        -4.560E-19   AT NODE       1206   DOF  2
   INSTANCE: CYLINDER-1                                                                      
 LARGEST CORRECTION TO DISP.        1.158E-29   AT NODE       1206   DOF  2
   INSTANCE: CYLINDER-1                                                                      
          THE FORCE     EQUILIBRIUM RESPONSE WAS LINEAR IN THIS INCREMENT

 AVERAGE CHARGE                     4.333E-21   TIME AVG. CHARGE      1.000E-02
 LARGEST RESIDUAL CHARGE            5.038E-31   AT NODE        146   DOF  9
   INSTANCE: PIEZO-1                                                                         
 LARGEST INCREMENT OF E. POT.       6.524E-10   AT NODE        148   DOF  9
   INSTANCE: PIEZO-1                                                                         
 LARGEST CORRECTION TO E. POT.      2.183E-11   AT NODE        148   DOF  9
   INSTANCE: PIEZO-1                                                                         
          THERE IS ZERO CHARGE    EVERYWHERE
 

 ***WARNING: THERE IS ZERO CHARGE EVERYWHERE IN THE MODEL BASED ON THE DEFAULT 
             CRITERION. PLEASE CHECK THE VALUE OF THE AVERAGE CHARGE DURING THE 
             CURRENT ITERATION TO VERIFY THAT THE CHARGE IS SMALL ENOUGH TO BE 
             TREATED AS ZERO. IF NOT, PLEASE USE THE SOLUTION CONTROLS TO RESET 
             THE CRITERION FOR ZERO CHARGE.

  MAXIMUM HALF-INCREMENT FORCE RESIDUAL IS   1.351E-05 AND OCCURS AT NODE       2115 INSTANCE CYLINDER-1                                                                      
          TIME INCREMENT MAY NOW INCREASE TO    2.441E-13

 ITERATION SUMMARY FOR THE INCREMENT:   1 TOTAL ITERATIONS, OF WHICH
   0 ARE SEVERE DISCONTINUITY ITERATIONS AND  1 ARE EQUILIBRIUM ITERATIONS.

 TIME INCREMENT COMPLETED  1.953E-13,  FRACTION OF STEP COMPLETED  1.553E-12
 STEP TIME COMPLETED       7.766E-13,  TOTAL TIME COMPLETED        7.766E-13


  INCREMENT     7 STARTS. ATTEMPT NUMBER  1, TIME INCREMENT  2.441E-13

  NUMBER OF EQUATIONS =    29113     NUMBER OF FLOATING PT. OPERATIONS =  5.77E+09

  USING THE DIRECT SOLVER WITH   8 PROCESSORS

     CHECK POINT   START OF SOLVER    

     CHECK POINT  END OF SOLVER       

       ELAPSED USER TIME (SEC)      =   1.9000    
       ELAPSED SYSTEM TIME (SEC)    =  0.10000    
       ELAPSED TOTAL CPU TIME (SEC) =   2.0000    
       ELAPSED WALLCLOCK TIME (SEC) =          0

               CONVERGENCE CHECKS FOR EQUILIBRIUM ITERATION     1


 AVERAGE FORCE                      3.267E+03   TIME AVG. FORCE       3.267E+03
 LARGEST RESIDUAL FORCE             4.397E-10   AT NODE          1   DOF  2
   INSTANCE: PIEZO-1                                                                         
 LARGEST INCREMENT OF DISP.        -7.544E-19   AT NODE       1206   DOF  2
   INSTANCE: CYLINDER-1                                                                      
 LARGEST CORRECTION TO DISP.        2.262E-29   AT NODE       1208   DOF  2
   INSTANCE: CYLINDER-1                                                                      
          THE FORCE     EQUILIBRIUM RESPONSE WAS LINEAR IN THIS INCREMENT

 AVERAGE CHARGE                     7.486E-21   TIME AVG. CHARGE      1.000E-02
 LARGEST RESIDUAL CHARGE            9.913E-31   AT NODE         90   DOF  9
   INSTANCE: PIEZO-1                                                                         
 LARGEST INCREMENT OF E. POT.       1.079E-09   AT NODE        148   DOF  9
   INSTANCE: PIEZO-1                                                                         
 LARGEST CORRECTION TO E. POT.     -2.649E-11   AT NODE        148   DOF  9
   INSTANCE: PIEZO-1                                                                         
          THERE IS ZERO CHARGE    EVERYWHERE
 

 ***WARNING: THERE IS ZERO CHARGE EVERYWHERE IN THE MODEL BASED ON THE DEFAULT 
             CRITERION. PLEASE CHECK THE VALUE OF THE AVERAGE CHARGE DURING THE 
             CURRENT ITERATION TO VERIFY THAT THE CHARGE IS SMALL ENOUGH TO BE 
             TREATED AS ZERO. IF NOT, PLEASE USE THE SOLUTION CONTROLS TO RESET 
             THE CRITERION FOR ZERO CHARGE.

  MAXIMUM HALF-INCREMENT FORCE RESIDUAL IS   1.689E-05 AND OCCURS AT NODE       2332 INSTANCE CYLINDER-1                                                                      
          TIME INCREMENT MAY NOW INCREASE TO    3.052E-13

 ITERATION SUMMARY FOR THE INCREMENT:   1 TOTAL ITERATIONS, OF WHICH
   0 ARE SEVERE DISCONTINUITY ITERATIONS AND  1 ARE EQUILIBRIUM ITERATIONS.

 TIME INCREMENT COMPLETED  2.441E-13,  FRACTION OF STEP COMPLETED  2.041E-12
 STEP TIME COMPLETED       1.021E-12,  TOTAL TIME COMPLETED        1.021E-12


  INCREMENT     8 STARTS. ATTEMPT NUMBER  1, TIME INCREMENT  3.052E-13

  NUMBER OF EQUATIONS =    29113     NUMBER OF FLOATING PT. OPERATIONS =  5.77E+09

  USING THE DIRECT SOLVER WITH   8 PROCESSORS

     CHECK POINT   START OF SOLVER    

     CHECK POINT  END OF SOLVER       

       ELAPSED USER TIME (SEC)      =   2.0000    
       ELAPSED SYSTEM TIME (SEC)    =   0.0000    
       ELAPSED TOTAL CPU TIME (SEC) =   2.0000    
       ELAPSED WALLCLOCK TIME (SEC) =          1

               CONVERGENCE CHECKS FOR EQUILIBRIUM ITERATION     1


 AVERAGE FORCE                      3.267E+03   TIME AVG. FORCE       3.267E+03
 LARGEST RESIDUAL FORCE             3.874E-10   AT NODE       2386   DOF  2
   INSTANCE: CYLINDER-1                                                                      
 LARGEST INCREMENT OF DISP.        -1.231E-18   AT NODE       1206   DOF  2
   INSTANCE: CYLINDER-1                                                                      
 LARGEST CORRECTION TO DISP.        4.419E-29   AT NODE       1847   DOF  2
   INSTANCE: CYLINDER-1                                                                      
          THE FORCE     EQUILIBRIUM RESPONSE WAS LINEAR IN THIS INCREMENT

 AVERAGE CHARGE                     1.263E-20   TIME AVG. CHARGE      1.000E-02
 LARGEST RESIDUAL CHARGE            1.955E-30   AT NODE         90   DOF  9
   INSTANCE: PIEZO-1                                                                         
 LARGEST INCREMENT OF E. POT.       1.762E-09   AT NODE        148   DOF  9
   INSTANCE: PIEZO-1                                                                         
 LARGEST CORRECTION TO E. POT.      3.174E-11   AT NODE        148   DOF  9
   INSTANCE: PIEZO-1                                                                         
          THERE IS ZERO CHARGE    EVERYWHERE
 

 ***WARNING: THERE IS ZERO CHARGE EVERYWHERE IN THE MODEL BASED ON THE DEFAULT 
             CRITERION. PLEASE CHECK THE VALUE OF THE AVERAGE CHARGE DURING THE 
             CURRENT ITERATION TO VERIFY THAT THE CHARGE IS SMALL ENOUGH TO BE 
             TREATED AS ZERO. IF NOT, PLEASE USE THE SOLUTION CONTROLS TO RESET 
             THE CRITERION FOR ZERO CHARGE.

  MAXIMUM HALF-INCREMENT FORCE RESIDUAL IS   2.111E-05 AND OCCURS AT NODE       1123 INSTANCE CYLINDER-1                                                                      
          TIME INCREMENT MAY NOW INCREASE TO    3.815E-13

 ITERATION SUMMARY FOR THE INCREMENT:   1 TOTAL ITERATIONS, OF WHICH
   0 ARE SEVERE DISCONTINUITY ITERATIONS AND  1 ARE EQUILIBRIUM ITERATIONS.

 TIME INCREMENT COMPLETED  3.052E-13,  FRACTION OF STEP COMPLETED  2.652E-12
 STEP TIME COMPLETED       1.326E-12,  TOTAL TIME COMPLETED        1.326E-12


  INCREMENT     9 STARTS. ATTEMPT NUMBER  1, TIME INCREMENT  3.815E-13

  NUMBER OF EQUATIONS =    29113     NUMBER OF FLOATING PT. OPERATIONS =  5.77E+09

  USING THE DIRECT SOLVER WITH   8 PROCESSORS

     CHECK POINT   START OF SOLVER    

     CHECK POINT  END OF SOLVER       

       ELAPSED USER TIME (SEC)      =   1.8000    
       ELAPSED SYSTEM TIME (SEC)    =   0.0000    
       ELAPSED TOTAL CPU TIME (SEC) =   1.8000    
       ELAPSED WALLCLOCK TIME (SEC) =          1

               CONVERGENCE CHECKS FOR EQUILIBRIUM ITERATION     1


 AVERAGE FORCE                      3.267E+03   TIME AVG. FORCE       3.267E+03
 LARGEST RESIDUAL FORCE             5.220E-10   AT NODE          7   DOF  2
   INSTANCE: PIEZO-1                                                                         
 LARGEST INCREMENT OF DISP.        -1.989E-18   AT NODE       1206   DOF  2
   INSTANCE: CYLINDER-1                                                                      
 LARGEST CORRECTION TO DISP.        8.635E-29   AT NODE       1847   DOF  2
   INSTANCE: CYLINDER-1                                                                      
          THE FORCE     EQUILIBRIUM RESPONSE WAS LINEAR IN THIS INCREMENT

 AVERAGE CHARGE                     2.095E-20   TIME AVG. CHARGE      1.000E-02
 LARGEST RESIDUAL CHARGE            3.863E-30   AT NODE        146   DOF  9
   INSTANCE: PIEZO-1                                                                         
 LARGEST INCREMENT OF E. POT.       2.846E-09   AT NODE        148   DOF  9
   INSTANCE: PIEZO-1                                                                         
 LARGEST CORRECTION TO E. POT.     -3.753E-11   AT NODE        148   DOF  9
   INSTANCE: PIEZO-1                                                                         
          THERE IS ZERO CHARGE    EVERYWHERE
 

 ***WARNING: THERE IS ZERO CHARGE EVERYWHERE IN THE MODEL BASED ON THE DEFAULT 
             CRITERION. PLEASE CHECK THE VALUE OF THE AVERAGE CHARGE DURING THE 
             CURRENT ITERATION TO VERIFY THAT THE CHARGE IS SMALL ENOUGH TO BE 
             TREATED AS ZERO. IF NOT, PLEASE USE THE SOLUTION CONTROLS TO RESET 
             THE CRITERION FOR ZERO CHARGE.

  MAXIMUM HALF-INCREMENT FORCE RESIDUAL IS   2.639E-05 AND OCCURS AT NODE       2115 INSTANCE CYLINDER-1                                                                      
          TIME INCREMENT MAY NOW INCREASE TO    4.768E-13

 ITERATION SUMMARY FOR THE INCREMENT:   1 TOTAL ITERATIONS, OF WHICH
   0 ARE SEVERE DISCONTINUITY ITERATIONS AND  1 ARE EQUILIBRIUM ITERATIONS.

 TIME INCREMENT COMPLETED  3.815E-13,  FRACTION OF STEP COMPLETED  3.415E-12
 STEP TIME COMPLETED       1.707E-12,  TOTAL TIME COMPLETED        1.707E-12


  INCREMENT    10 STARTS. ATTEMPT NUMBER  1, TIME INCREMENT  4.768E-13

  NUMBER OF EQUATIONS =    29113     NUMBER OF FLOATING PT. OPERATIONS =  5.77E+09

  USING THE DIRECT SOLVER WITH   8 PROCESSORS

     CHECK POINT   START OF SOLVER    

     CHECK POINT  END OF SOLVER       

       ELAPSED USER TIME (SEC)      =   2.0000    
       ELAPSED SYSTEM TIME (SEC)    =   0.0000    
       ELAPSED TOTAL CPU TIME (SEC) =   2.0000    
       ELAPSED WALLCLOCK TIME (SEC) =          1

               CONVERGENCE CHECKS FOR EQUILIBRIUM ITERATION     1


 AVERAGE FORCE                      3.267E+03   TIME AVG. FORCE       3.267E+03
 LARGEST RESIDUAL FORCE            -3.656E-10   AT NODE        705   DOF  2
   INSTANCE: CYLINDER-1                                                                      
 LARGEST INCREMENT OF DISP.        -3.190E-18   AT NODE       1206   DOF  2
   INSTANCE: CYLINDER-1                                                                      
 LARGEST CORRECTION TO DISP.        1.687E-28   AT NODE       1206   DOF  2
   INSTANCE: CYLINDER-1                                                                      
          THE FORCE     EQUILIBRIUM RESPONSE WAS LINEAR IN THIS INCREMENT

 AVERAGE CHARGE                     3.428E-20   TIME AVG. CHARGE      1.000E-02
 LARGEST RESIDUAL CHARGE            7.655E-30   AT NODE        146   DOF  9
   INSTANCE: PIEZO-1                                                                         
 LARGEST INCREMENT OF E. POT.       4.565E-09   AT NODE        148   DOF  9
   INSTANCE: PIEZO-1                                                                         
 LARGEST CORRECTION TO E. POT.      4.369E-11   AT NODE        148   DOF  9
   INSTANCE: PIEZO-1                                                                         
          THERE IS ZERO CHARGE    EVERYWHERE
 

 ***WARNING: THERE IS ZERO CHARGE EVERYWHERE IN THE MODEL BASED ON THE DEFAULT 
             CRITERION. PLEASE CHECK THE VALUE OF THE AVERAGE CHARGE DURING THE 
             CURRENT ITERATION TO VERIFY THAT THE CHARGE IS SMALL ENOUGH TO BE 
             TREATED AS ZERO. IF NOT, PLEASE USE THE SOLUTION CONTROLS TO RESET 
             THE CRITERION FOR ZERO CHARGE.

  MAXIMUM HALF-INCREMENT FORCE RESIDUAL IS   3.298E-05 AND OCCURS AT NODE       2336 INSTANCE CYLINDER-1                                                                      
          TIME INCREMENT MAY NOW INCREASE TO    5.960E-13

 ITERATION SUMMARY FOR THE INCREMENT:   1 TOTAL ITERATIONS, OF WHICH
   0 ARE SEVERE DISCONTINUITY ITERATIONS AND  1 ARE EQUILIBRIUM ITERATIONS.

 TIME INCREMENT COMPLETED  4.768E-13,  FRACTION OF STEP COMPLETED  4.368E-12
 STEP TIME COMPLETED       2.184E-12,  TOTAL TIME COMPLETED        2.184E-12


  INCREMENT    11 STARTS. ATTEMPT NUMBER  1, TIME INCREMENT  5.960E-13

  NUMBER OF EQUATIONS =    29113     NUMBER OF FLOATING PT. OPERATIONS =  5.77E+09

  USING THE DIRECT SOLVER WITH   8 PROCESSORS

     CHECK POINT   START OF SOLVER    

     CHECK POINT  END OF SOLVER       

       ELAPSED USER TIME (SEC)      =   2.0000    
       ELAPSED SYSTEM TIME (SEC)    =   0.0000    
       ELAPSED TOTAL CPU TIME (SEC) =   2.0000    
       ELAPSED WALLCLOCK TIME (SEC) =          0

               CONVERGENCE CHECKS FOR EQUILIBRIUM ITERATION     1


 AVERAGE FORCE                      3.267E+03   TIME AVG. FORCE       3.267E+03
 LARGEST RESIDUAL FORCE             4.111E-10   AT NODE        439   DOF  2
   INSTANCE: CYLINDER-1                                                                      
 LARGEST INCREMENT OF DISP.        -5.087E-18   AT NODE       1206   DOF  2
   INSTANCE: CYLINDER-1                                                                      
 LARGEST CORRECTION TO DISP.        3.298E-28   AT NODE       1847   DOF  2
   INSTANCE: CYLINDER-1                                                                      
          THE FORCE     EQUILIBRIUM RESPONSE WAS LINEAR IN THIS INCREMENT

 AVERAGE CHARGE                     5.554E-20   TIME AVG. CHARGE      1.000E-02
 LARGEST RESIDUAL CHARGE            1.522E-29   AT NODE        146   DOF  9
   INSTANCE: PIEZO-1                                                                         
 LARGEST INCREMENT OF E. POT.       7.279E-09   AT NODE        148   DOF  9
   INSTANCE: PIEZO-1                                                                         
 LARGEST CORRECTION TO E. POT.     -4.993E-11   AT NODE        148   DOF  9
   INSTANCE: PIEZO-1                                                                         
          THERE IS ZERO CHARGE    EVERYWHERE
 

 ***WARNING: THERE IS ZERO CHARGE EVERYWHERE IN THE MODEL BASED ON THE DEFAULT 
             CRITERION. PLEASE CHECK THE VALUE OF THE AVERAGE CHARGE DURING THE 
             CURRENT ITERATION TO VERIFY THAT THE CHARGE IS SMALL ENOUGH TO BE 
             TREATED AS ZERO. IF NOT, PLEASE USE THE SOLUTION CONTROLS TO RESET 
             THE CRITERION FOR ZERO CHARGE.

  MAXIMUM HALF-INCREMENT FORCE RESIDUAL IS   4.123E-05 AND OCCURS AT NODE       2115 INSTANCE CYLINDER-1                                                                      
          TIME INCREMENT MAY NOW INCREASE TO    7.451E-13

 ITERATION SUMMARY FOR THE INCREMENT:   1 TOTAL ITERATIONS, OF WHICH
   0 ARE SEVERE DISCONTINUITY ITERATIONS AND  1 ARE EQUILIBRIUM ITERATIONS.

 TIME INCREMENT COMPLETED  5.960E-13,  FRACTION OF STEP COMPLETED  5.560E-12
 STEP TIME COMPLETED       2.780E-12,  TOTAL TIME COMPLETED        2.780E-12


  INCREMENT    12 STARTS. ATTEMPT NUMBER  1, TIME INCREMENT  7.451E-13

  NUMBER OF EQUATIONS =    29113     NUMBER OF FLOATING PT. OPERATIONS =  5.77E+09

  USING THE DIRECT SOLVER WITH   8 PROCESSORS

     CHECK POINT   START OF SOLVER    

     CHECK POINT  END OF SOLVER       

       ELAPSED USER TIME (SEC)      =   1.9000    
       ELAPSED SYSTEM TIME (SEC)    =   0.0000    
       ELAPSED TOTAL CPU TIME (SEC) =   1.9000    
       ELAPSED WALLCLOCK TIME (SEC) =          0

               CONVERGENCE CHECKS FOR EQUILIBRIUM ITERATION     1


 AVERAGE FORCE                      3.267E+03   TIME AVG. FORCE       3.267E+03
 LARGEST RESIDUAL FORCE             5.396E-10   AT NODE          1   DOF  2
   INSTANCE: PIEZO-1                                                                         
 LARGEST INCREMENT OF DISP.        -8.077E-18   AT NODE       1206   DOF  2
   INSTANCE: CYLINDER-1                                                                      
 LARGEST CORRECTION TO DISP.        6.446E-28   AT NODE       1847   DOF  2
   INSTANCE: CYLINDER-1                                                                      
          THE FORCE     EQUILIBRIUM RESPONSE WAS LINEAR IN THIS INCREMENT

 AVERAGE CHARGE                     8.930E-20   TIME AVG. CHARGE      1.000E-02
 LARGEST RESIDUAL CHARGE            3.038E-29   AT NODE         90   DOF  9
   INSTANCE: PIEZO-1                                                                         
 LARGEST INCREMENT OF E. POT.       1.156E-08   AT NODE        148   DOF  9
   INSTANCE: PIEZO-1                                                                         
 LARGEST CORRECTION TO E. POT.      5.579E-11   AT NODE        148   DOF  9
   INSTANCE: PIEZO-1                                                                         
          THERE IS ZERO CHARGE    EVERYWHERE
 

 ***WARNING: THERE IS ZERO CHARGE EVERYWHERE IN THE MODEL BASED ON THE DEFAULT 
             CRITERION. PLEASE CHECK THE VALUE OF THE AVERAGE CHARGE DURING THE 
             CURRENT ITERATION TO VERIFY THAT THE CHARGE IS SMALL ENOUGH TO BE 
             TREATED AS ZERO. IF NOT, PLEASE USE THE SOLUTION CONTROLS TO RESET 
             THE CRITERION FOR ZERO CHARGE.

  MAXIMUM HALF-INCREMENT FORCE RESIDUAL IS   5.153E-05 AND OCCURS AT NODE       3090 INSTANCE CYLINDER-1                                                                      
          TIME INCREMENT MAY NOW INCREASE TO    9.313E-13

 ITERATION SUMMARY FOR THE INCREMENT:   1 TOTAL ITERATIONS, OF WHICH
   0 ARE SEVERE DISCONTINUITY ITERATIONS AND  1 ARE EQUILIBRIUM ITERATIONS.

 TIME INCREMENT COMPLETED  7.451E-13,  FRACTION OF STEP COMPLETED  7.051E-12
 STEP TIME COMPLETED       3.525E-12,  TOTAL TIME COMPLETED        3.525E-12


  INCREMENT    13 STARTS. ATTEMPT NUMBER  1, TIME INCREMENT  9.313E-13

  NUMBER OF EQUATIONS =    29113     NUMBER OF FLOATING PT. OPERATIONS =  5.77E+09

  USING THE DIRECT SOLVER WITH   8 PROCESSORS

     CHECK POINT   START OF SOLVER    

     CHECK POINT  END OF SOLVER       

       ELAPSED USER TIME (SEC)      =   2.0000    
       ELAPSED SYSTEM TIME (SEC)    =   0.0000    
       ELAPSED TOTAL CPU TIME (SEC) =   2.0000    
       ELAPSED WALLCLOCK TIME (SEC) =          0

               CONVERGENCE CHECKS FOR EQUILIBRIUM ITERATION     1


 AVERAGE FORCE                      3.267E+03   TIME AVG. FORCE       3.267E+03
 LARGEST RESIDUAL FORCE             2.910E-10   AT NODE         85   DOF  2
   INSTANCE: CYLINDER-1                                                                      
 LARGEST INCREMENT OF DISP.        -1.278E-17   AT NODE       1206   DOF  2
   INSTANCE: CYLINDER-1                                                                      
 LARGEST CORRECTION TO DISP.        1.260E-27   AT NODE       1208   DOF  2
   INSTANCE: CYLINDER-1                                                                      
          THE FORCE     EQUILIBRIUM RESPONSE WAS LINEAR IN THIS INCREMENT

 AVERAGE CHARGE                     1.427E-19   TIME AVG. CHARGE      1.000E-02
 LARGEST RESIDUAL CHARGE            6.093E-29   AT NODE        146   DOF  9
   INSTANCE: PIEZO-1                                                                         
 LARGEST INCREMENT OF E. POT.       1.829E-08   AT NODE        148   DOF  9
   INSTANCE: PIEZO-1                                                                         
 LARGEST CORRECTION TO E. POT.     -6.055E-11   AT NODE        148   DOF  9
   INSTANCE: PIEZO-1                                                                         
          THERE IS ZERO CHARGE    EVERYWHERE
 

 ***WARNING: THERE IS ZERO CHARGE EVERYWHERE IN THE MODEL BASED ON THE DEFAULT 
             CRITERION. PLEASE CHECK THE VALUE OF THE AVERAGE CHARGE DURING THE 
             CURRENT ITERATION TO VERIFY THAT THE CHARGE IS SMALL ENOUGH TO BE 
             TREATED AS ZERO. IF NOT, PLEASE USE THE SOLUTION CONTROLS TO RESET 
             THE CRITERION FOR ZERO CHARGE.

  MAXIMUM HALF-INCREMENT FORCE RESIDUAL IS   6.441E-05 AND OCCURS AT NODE       2115 INSTANCE CYLINDER-1                                                                      
          TIME INCREMENT MAY NOW INCREASE TO    1.164E-12

 ITERATION SUMMARY FOR THE INCREMENT:   1 TOTAL ITERATIONS, OF WHICH
   0 ARE SEVERE DISCONTINUITY ITERATIONS AND  1 ARE EQUILIBRIUM ITERATIONS.

 TIME INCREMENT COMPLETED  9.313E-13,  FRACTION OF STEP COMPLETED  8.913E-12
 STEP TIME COMPLETED       4.457E-12,  TOTAL TIME COMPLETED        4.457E-12


  INCREMENT    14 STARTS. ATTEMPT NUMBER  1, TIME INCREMENT  1.164E-12

  NUMBER OF EQUATIONS =    29113     NUMBER OF FLOATING PT. OPERATIONS =  5.77E+09

  USING THE DIRECT SOLVER WITH   8 PROCESSORS

     CHECK POINT   START OF SOLVER    

     CHECK POINT  END OF SOLVER       

       ELAPSED USER TIME (SEC)      =   2.1000    
       ELAPSED SYSTEM TIME (SEC)    =   0.0000    
       ELAPSED TOTAL CPU TIME (SEC) =   2.1000    
       ELAPSED WALLCLOCK TIME (SEC) =          0

               CONVERGENCE CHECKS FOR EQUILIBRIUM ITERATION     1


 AVERAGE FORCE                      3.267E+03   TIME AVG. FORCE       3.267E+03
 LARGEST RESIDUAL FORCE            -3.947E-10   AT NODE       2564   DOF  2
   INSTANCE: CYLINDER-1                                                                      
 LARGEST INCREMENT OF DISP.        -2.017E-17   AT NODE       1206   DOF  2
   INSTANCE: CYLINDER-1                                                                      
 LARGEST CORRECTION TO DISP.        2.464E-27   AT NODE       1206   DOF  2
   INSTANCE: CYLINDER-1                                                                      
          THE FORCE     EQUILIBRIUM RESPONSE WAS LINEAR IN THIS INCREMENT

 AVERAGE CHARGE                     2.270E-19   TIME AVG. CHARGE      1.000E-02
 LARGEST RESIDUAL CHARGE            1.229E-28   AT NODE         90   DOF  9
   INSTANCE: PIEZO-1                                                                         
 LARGEST INCREMENT OF E. POT.       2.886E-08   AT NODE        148   DOF  9
   INSTANCE: PIEZO-1                                                                         
 LARGEST CORRECTION TO E. POT.      6.316E-11   AT NODE        148   DOF  9
   INSTANCE: PIEZO-1                                                                         
          THERE IS ZERO CHARGE    EVERYWHERE
 

 ***WARNING: THERE IS ZERO CHARGE EVERYWHERE IN THE MODEL BASED ON THE DEFAULT 
             CRITERION. PLEASE CHECK THE VALUE OF THE AVERAGE CHARGE DURING THE 
             CURRENT ITERATION TO VERIFY THAT THE CHARGE IS SMALL ENOUGH TO BE 
             TREATED AS ZERO. IF NOT, PLEASE USE THE SOLUTION CONTROLS TO RESET 
             THE CRITERION FOR ZERO CHARGE.

  MAXIMUM HALF-INCREMENT FORCE RESIDUAL IS   8.051E-05 AND OCCURS AT NODE        843 INSTANCE CYLINDER-1                                                                      
          TIME INCREMENT MAY NOW INCREASE TO    1.455E-12

 ITERATION SUMMARY FOR THE INCREMENT:   1 TOTAL ITERATIONS, OF WHICH
   0 ARE SEVERE DISCONTINUITY ITERATIONS AND  1 ARE EQUILIBRIUM ITERATIONS.

 TIME INCREMENT COMPLETED  1.164E-12,  FRACTION OF STEP COMPLETED  1.124E-11
 STEP TIME COMPLETED       5.621E-12,  TOTAL TIME COMPLETED        5.621E-12


  INCREMENT    15 STARTS. ATTEMPT NUMBER  1, TIME INCREMENT  1.455E-12

  NUMBER OF EQUATIONS =    29113     NUMBER OF FLOATING PT. OPERATIONS =  5.77E+09

  USING THE DIRECT SOLVER WITH   8 PROCESSORS

     CHECK POINT   START OF SOLVER    

     CHECK POINT  END OF SOLVER       

       ELAPSED USER TIME (SEC)      =   1.8000    
       ELAPSED SYSTEM TIME (SEC)    =   0.0000    
       ELAPSED TOTAL CPU TIME (SEC) =   1.8000    
       ELAPSED WALLCLOCK TIME (SEC) =          0

               CONVERGENCE CHECKS FOR EQUILIBRIUM ITERATION     1


 AVERAGE FORCE                      3.267E+03   TIME AVG. FORCE       3.267E+03
 LARGEST RESIDUAL FORCE             5.057E-10   AT NODE        224   DOF  2
   INSTANCE: CYLINDER-1                                                                      
 LARGEST INCREMENT OF DISP.        -3.177E-17   AT NODE       1206   DOF  2
   INSTANCE: CYLINDER-1                                                                      
 LARGEST CORRECTION TO DISP.        4.820E-27   AT NODE       1849   DOF  2
   INSTANCE: CYLINDER-1                                                                      
          THE FORCE     EQUILIBRIUM RESPONSE WAS LINEAR IN THIS INCREMENT

 AVERAGE CHARGE                     3.598E-19   TIME AVG. CHARGE      1.000E-02
 LARGEST RESIDUAL CHARGE            2.496E-28   AT NODE        146   DOF  9
   INSTANCE: PIEZO-1                                                                         
 LARGEST INCREMENT OF E. POT.       4.545E-08   AT NODE        148   DOF  9
   INSTANCE: PIEZO-1                                                                         
 LARGEST CORRECTION TO E. POT.     -6.213E-11   AT NODE        148   DOF  9
   INSTANCE: PIEZO-1                                                                         
          THERE IS ZERO CHARGE    EVERYWHERE
 

 ***WARNING: THERE IS ZERO CHARGE EVERYWHERE IN THE MODEL BASED ON THE DEFAULT 
             CRITERION. PLEASE CHECK THE VALUE OF THE AVERAGE CHARGE DURING THE 
             CURRENT ITERATION TO VERIFY THAT THE CHARGE IS SMALL ENOUGH TO BE 
             TREATED AS ZERO. IF NOT, PLEASE USE THE SOLUTION CONTROLS TO RESET 
             THE CRITERION FOR ZERO CHARGE.

  MAXIMUM HALF-INCREMENT FORCE RESIDUAL IS   1.006E-04 AND OCCURS AT NODE        843 INSTANCE CYLINDER-1                                                                      
          TIME INCREMENT MAY NOW INCREASE TO    1.819E-12

 ITERATION SUMMARY FOR THE INCREMENT:   1 TOTAL ITERATIONS, OF WHICH
   0 ARE SEVERE DISCONTINUITY ITERATIONS AND  1 ARE EQUILIBRIUM ITERATIONS.

 TIME INCREMENT COMPLETED  1.455E-12,  FRACTION OF STEP COMPLETED  1.415E-11
 STEP TIME COMPLETED       7.076E-12,  TOTAL TIME COMPLETED        7.076E-12


  INCREMENT    16 STARTS. ATTEMPT NUMBER  1, TIME INCREMENT  1.819E-12

  NUMBER OF EQUATIONS =    29113     NUMBER OF FLOATING PT. OPERATIONS =  5.77E+09

  USING THE DIRECT SOLVER WITH   8 PROCESSORS

     CHECK POINT   START OF SOLVER    

     CHECK POINT  END OF SOLVER       

       ELAPSED USER TIME (SEC)      =   1.7000    
       ELAPSED SYSTEM TIME (SEC)    =  0.10000    
       ELAPSED TOTAL CPU TIME (SEC) =   1.8000    
       ELAPSED WALLCLOCK TIME (SEC) =          1

               CONVERGENCE CHECKS FOR EQUILIBRIUM ITERATION     1


 AVERAGE FORCE                      3.267E+03   TIME AVG. FORCE       3.267E+03
 LARGEST RESIDUAL FORCE            -3.829E-10   AT NODE        844   DOF  2
   INSTANCE: CYLINDER-1                                                                      
 LARGEST INCREMENT OF DISP.        -4.995E-17   AT NODE       1206   DOF  2
   INSTANCE: CYLINDER-1                                                                      
 LARGEST CORRECTION TO DISP.        9.433E-27   AT NODE       1206   DOF  2
   INSTANCE: CYLINDER-1                                                                      
          THE FORCE     EQUILIBRIUM RESPONSE WAS LINEAR IN THIS INCREMENT

 AVERAGE CHARGE                     5.685E-19   TIME AVG. CHARGE      1.000E-02
 LARGEST RESIDUAL CHARGE            5.108E-28   AT NODE        142   DOF  9
   INSTANCE: PIEZO-1                                                                         
 LARGEST INCREMENT OF E. POT.       7.146E-08   AT NODE        148   DOF  9
   INSTANCE: PIEZO-1                                                                         
 LARGEST CORRECTION TO E. POT.      5.535E-11   AT NODE        148   DOF  9
   INSTANCE: PIEZO-1                                                                         
          THERE IS ZERO CHARGE    EVERYWHERE
 

 ***WARNING: THERE IS ZERO CHARGE EVERYWHERE IN THE MODEL BASED ON THE DEFAULT 
             CRITERION. PLEASE CHECK THE VALUE OF THE AVERAGE CHARGE DURING THE 
             CURRENT ITERATION TO VERIFY THAT THE CHARGE IS SMALL ENOUGH TO BE 
             TREATED AS ZERO. IF NOT, PLEASE USE THE SOLUTION CONTROLS TO RESET 
             THE CRITERION FOR ZERO CHARGE.

  MAXIMUM HALF-INCREMENT FORCE RESIDUAL IS   1.258E-04 AND OCCURS AT NODE        843 INSTANCE CYLINDER-1                                                                      
          TIME INCREMENT MAY NOW INCREASE TO    2.274E-12

 ITERATION SUMMARY FOR THE INCREMENT:   1 TOTAL ITERATIONS, OF WHICH
   0 ARE SEVERE DISCONTINUITY ITERATIONS AND  1 ARE EQUILIBRIUM ITERATIONS.

 TIME INCREMENT COMPLETED  1.819E-12,  FRACTION OF STEP COMPLETED  1.779E-11
 STEP TIME COMPLETED       8.895E-12,  TOTAL TIME COMPLETED        8.895E-12


  INCREMENT    17 STARTS. ATTEMPT NUMBER  1, TIME INCREMENT  2.274E-12

  NUMBER OF EQUATIONS =    29113     NUMBER OF FLOATING PT. OPERATIONS =  5.77E+09

  USING THE DIRECT SOLVER WITH   8 PROCESSORS

     CHECK POINT   START OF SOLVER    

     CHECK POINT  END OF SOLVER       

       ELAPSED USER TIME (SEC)      =   1.8000    
       ELAPSED SYSTEM TIME (SEC)    =   0.0000    
       ELAPSED TOTAL CPU TIME (SEC) =   1.8000    
       ELAPSED WALLCLOCK TIME (SEC) =          1

               CONVERGENCE CHECKS FOR EQUILIBRIUM ITERATION     1


 AVERAGE FORCE                      3.267E+03   TIME AVG. FORCE       3.267E+03
 LARGEST RESIDUAL FORCE             4.475E-10   AT NODE        437   DOF  2
   INSTANCE: CYLINDER-1                                                                      
 LARGEST INCREMENT OF DISP.        -7.843E-17   AT NODE       1206   DOF  2
   INSTANCE: CYLINDER-1                                                                      
 LARGEST CORRECTION TO DISP.        1.847E-26   AT NODE       1206   DOF  2
   INSTANCE: CYLINDER-1                                                                      
          THE FORCE     EQUILIBRIUM RESPONSE WAS LINEAR IN THIS INCREMENT

 AVERAGE CHARGE                     8.963E-19   TIME AVG. CHARGE      1.000E-02
 LARGEST RESIDUAL CHARGE            1.054E-27   AT NODE        142   DOF  9
   INSTANCE: PIEZO-1                                                                         
 LARGEST INCREMENT OF E. POT.       1.122E-07   AT NODE        148   DOF  9
   INSTANCE: PIEZO-1                                                                         
 LARGEST CORRECTION TO E. POT.     -3.994E-11   AT NODE        148   DOF  9
   INSTANCE: PIEZO-1                                                                         
          THERE IS ZERO CHARGE    EVERYWHERE
 

 ***WARNING: THERE IS ZERO CHARGE EVERYWHERE IN THE MODEL BASED ON THE DEFAULT 
             CRITERION. PLEASE CHECK THE VALUE OF THE AVERAGE CHARGE DURING THE 
             CURRENT ITERATION TO VERIFY THAT THE CHARGE IS SMALL ENOUGH TO BE 
             TREATED AS ZERO. IF NOT, PLEASE USE THE SOLUTION CONTROLS TO RESET 
             THE CRITERION FOR ZERO CHARGE.

  MAXIMUM HALF-INCREMENT FORCE RESIDUAL IS   1.572E-04 AND OCCURS AT NODE       2336 INSTANCE CYLINDER-1                                                                      
          TIME INCREMENT MAY NOW INCREASE TO    2.842E-12

 ITERATION SUMMARY FOR THE INCREMENT:   1 TOTAL ITERATIONS, OF WHICH
   0 ARE SEVERE DISCONTINUITY ITERATIONS AND  1 ARE EQUILIBRIUM ITERATIONS.

 TIME INCREMENT COMPLETED  2.274E-12,  FRACTION OF STEP COMPLETED  2.234E-11
 STEP TIME COMPLETED       1.117E-11,  TOTAL TIME COMPLETED        1.117E-11


  INCREMENT    18 STARTS. ATTEMPT NUMBER  1, TIME INCREMENT  2.842E-12

  NUMBER OF EQUATIONS =    29113     NUMBER OF FLOATING PT. OPERATIONS =  5.77E+09

  USING THE DIRECT SOLVER WITH   8 PROCESSORS

     CHECK POINT   START OF SOLVER    

     CHECK POINT  END OF SOLVER       

       ELAPSED USER TIME (SEC)      =   1.8000    
       ELAPSED SYSTEM TIME (SEC)    =   0.0000    
       ELAPSED TOTAL CPU TIME (SEC) =   1.8000    
       ELAPSED WALLCLOCK TIME (SEC) =          0

               CONVERGENCE CHECKS FOR EQUILIBRIUM ITERATION     1


 AVERAGE FORCE                      3.267E+03   TIME AVG. FORCE       3.267E+03
 LARGEST RESIDUAL FORCE            -5.353E-10   AT NODE          1   DOF  2
   INSTANCE: PIEZO-1                                                                         
 LARGEST INCREMENT OF DISP.        -1.230E-16   AT NODE       1206   DOF  2
   INSTANCE: CYLINDER-1                                                                      
 LARGEST CORRECTION TO DISP.        3.618E-26   AT NODE       1206   DOF  2
   INSTANCE: CYLINDER-1                                                                      
          THE FORCE     EQUILIBRIUM RESPONSE WAS LINEAR IN THIS INCREMENT

 AVERAGE CHARGE                     1.411E-18   TIME AVG. CHARGE      1.000E-02
 LARGEST RESIDUAL CHARGE            2.198E-27   AT NODE         86   DOF  9
   INSTANCE: PIEZO-1                                                                         
 LARGEST INCREMENT OF E. POT.       1.760E-07   AT NODE        148   DOF  9
   INSTANCE: PIEZO-1                                                                         
 LARGEST CORRECTION TO E. POT.      1.202E-11   AT NODE        148   DOF  9
   INSTANCE: PIEZO-1                                                                         
          THERE IS ZERO CHARGE    EVERYWHERE
 

 ***WARNING: THERE IS ZERO CHARGE EVERYWHERE IN THE MODEL BASED ON THE DEFAULT 
             CRITERION. PLEASE CHECK THE VALUE OF THE AVERAGE CHARGE DURING THE 
             CURRENT ITERATION TO VERIFY THAT THE CHARGE IS SMALL ENOUGH TO BE 
             TREATED AS ZERO. IF NOT, PLEASE USE THE SOLUTION CONTROLS TO RESET 
             THE CRITERION FOR ZERO CHARGE.

  MAXIMUM HALF-INCREMENT FORCE RESIDUAL IS   1.965E-04 AND OCCURS AT NODE        843 INSTANCE CYLINDER-1                                                                      
          TIME INCREMENT MAY NOW INCREASE TO    3.553E-12

 ITERATION SUMMARY FOR THE INCREMENT:   1 TOTAL ITERATIONS, OF WHICH
   0 ARE SEVERE DISCONTINUITY ITERATIONS AND  1 ARE EQUILIBRIUM ITERATIONS.

 TIME INCREMENT COMPLETED  2.842E-12,  FRACTION OF STEP COMPLETED  2.802E-11
 STEP TIME COMPLETED       1.401E-11,  TOTAL TIME COMPLETED        1.401E-11


  INCREMENT    19 STARTS. ATTEMPT NUMBER  1, TIME INCREMENT  3.553E-12

  NUMBER OF EQUATIONS =    29113     NUMBER OF FLOATING PT. OPERATIONS =  5.77E+09

  USING THE DIRECT SOLVER WITH   8 PROCESSORS

     CHECK POINT   START OF SOLVER    

     CHECK POINT  END OF SOLVER       

       ELAPSED USER TIME (SEC)      =   1.7000    
       ELAPSED SYSTEM TIME (SEC)    =   0.0000    
       ELAPSED TOTAL CPU TIME (SEC) =   1.7000    
       ELAPSED WALLCLOCK TIME (SEC) =          0

               CONVERGENCE CHECKS FOR EQUILIBRIUM ITERATION     1


 AVERAGE FORCE                      3.267E+03   TIME AVG. FORCE       3.267E+03
 LARGEST RESIDUAL FORCE             4.220E-10   AT NODE        462   DOF  2
   INSTANCE: CYLINDER-1                                                                      
 LARGEST INCREMENT OF DISP.        -1.929E-16   AT NODE       1206   DOF  2
   INSTANCE: CYLINDER-1                                                                      
 LARGEST CORRECTION TO DISP.        7.092E-26   AT NODE       1206   DOF  2
   INSTANCE: CYLINDER-1                                                                      
          THE FORCE     EQUILIBRIUM RESPONSE WAS LINEAR IN THIS INCREMENT

 AVERAGE CHARGE                     2.217E-18   TIME AVG. CHARGE      1.000E-02
 LARGEST RESIDUAL CHARGE            4.632E-27   AT NODE        142   DOF  9
   INSTANCE: PIEZO-1                                                                         
 LARGEST INCREMENT OF E. POT.       2.759E-07   AT NODE        148   DOF  9
   INSTANCE: PIEZO-1                                                                         
 LARGEST CORRECTION TO E. POT.      3.362E-11   AT NODE        148   DOF  9
   INSTANCE: PIEZO-1                                                                         
          THERE IS ZERO CHARGE    EVERYWHERE
 

 ***WARNING: THERE IS ZERO CHARGE EVERYWHERE IN THE MODEL BASED ON THE DEFAULT 
             CRITERION. PLEASE CHECK THE VALUE OF THE AVERAGE CHARGE DURING THE 
             CURRENT ITERATION TO VERIFY THAT THE CHARGE IS SMALL ENOUGH TO BE 
             TREATED AS ZERO. IF NOT, PLEASE USE THE SOLUTION CONTROLS TO RESET 
             THE CRITERION FOR ZERO CHARGE.

  MAXIMUM HALF-INCREMENT FORCE RESIDUAL IS   2.456E-04 AND OCCURS AT NODE       2115 INSTANCE CYLINDER-1                                                                      
          TIME INCREMENT MAY NOW INCREASE TO    4.441E-12

 ITERATION SUMMARY FOR THE INCREMENT:   1 TOTAL ITERATIONS, OF WHICH
   0 ARE SEVERE DISCONTINUITY ITERATIONS AND  1 ARE EQUILIBRIUM ITERATIONS.

 TIME INCREMENT COMPLETED  3.553E-12,  FRACTION OF STEP COMPLETED  3.513E-11
 STEP TIME COMPLETED       1.756E-11,  TOTAL TIME COMPLETED        1.756E-11


  INCREMENT    20 STARTS. ATTEMPT NUMBER  1, TIME INCREMENT  4.441E-12

  NUMBER OF EQUATIONS =    29113     NUMBER OF FLOATING PT. OPERATIONS =  5.77E+09

  USING THE DIRECT SOLVER WITH   8 PROCESSORS

     CHECK POINT   START OF SOLVER    

     CHECK POINT  END OF SOLVER       

       ELAPSED USER TIME (SEC)      =   1.7000    
       ELAPSED SYSTEM TIME (SEC)    =   0.0000    
       ELAPSED TOTAL CPU TIME (SEC) =   1.7000    
       ELAPSED WALLCLOCK TIME (SEC) =          0

               CONVERGENCE CHECKS FOR EQUILIBRIUM ITERATION     1


 AVERAGE FORCE                      3.267E+03   TIME AVG. FORCE       3.267E+03
 LARGEST RESIDUAL FORCE             5.825E-10   AT NODE         71   DOF  2
   INSTANCE: PIEZO-1                                                                         
 LARGEST INCREMENT OF DISP.        -3.021E-16   AT NODE       1206   DOF  2
   INSTANCE: CYLINDER-1                                                                      
 LARGEST CORRECTION TO DISP.        1.391E-25   AT NODE       1206   DOF  2
   INSTANCE: CYLINDER-1                                                                      
          THE FORCE     EQUILIBRIUM RESPONSE WAS LINEAR IN THIS INCREMENT

 AVERAGE CHARGE                     3.479E-18   TIME AVG. CHARGE      1.000E-02
 LARGEST RESIDUAL CHARGE            9.875E-27   AT NODE        146   DOF  9
   INSTANCE: PIEZO-1                                                                         
 LARGEST INCREMENT OF E. POT.       4.323E-07   AT NODE        148   DOF  9
   INSTANCE: PIEZO-1                                                                         
 LARGEST CORRECTION TO E. POT.     -1.038E-10   AT NODE        148   DOF  9
   INSTANCE: PIEZO-1                                                                         
          THERE IS ZERO CHARGE    EVERYWHERE
 

 ***WARNING: THERE IS ZERO CHARGE EVERYWHERE IN THE MODEL BASED ON THE DEFAULT 
             CRITERION. PLEASE CHECK THE VALUE OF THE AVERAGE CHARGE DURING THE 
             CURRENT ITERATION TO VERIFY THAT THE CHARGE IS SMALL ENOUGH TO BE 
             TREATED AS ZERO. IF NOT, PLEASE USE THE SOLUTION CONTROLS TO RESET 
             THE CRITERION FOR ZERO CHARGE.

  MAXIMUM HALF-INCREMENT FORCE RESIDUAL IS   3.069E-04 AND OCCURS AT NODE       3090 INSTANCE CYLINDER-1                                                                      
          TIME INCREMENT MAY NOW INCREASE TO    5.551E-12

 ITERATION SUMMARY FOR THE INCREMENT:   1 TOTAL ITERATIONS, OF WHICH
   0 ARE SEVERE DISCONTINUITY ITERATIONS AND  1 ARE EQUILIBRIUM ITERATIONS.

 TIME INCREMENT COMPLETED  4.441E-12,  FRACTION OF STEP COMPLETED  4.401E-11
 STEP TIME COMPLETED       2.200E-11,  TOTAL TIME COMPLETED        2.200E-11


  INCREMENT    21 STARTS. ATTEMPT NUMBER  1, TIME INCREMENT  5.551E-12

  NUMBER OF EQUATIONS =    29113     NUMBER OF FLOATING PT. OPERATIONS =  5.77E+09

  USING THE DIRECT SOLVER WITH   8 PROCESSORS

     CHECK POINT   START OF SOLVER    

     CHECK POINT  END OF SOLVER       

       ELAPSED USER TIME (SEC)      =   1.7000    
       ELAPSED SYSTEM TIME (SEC)    =   0.0000    
       ELAPSED TOTAL CPU TIME (SEC) =   1.7000    
       ELAPSED WALLCLOCK TIME (SEC) =          0

               CONVERGENCE CHECKS FOR EQUILIBRIUM ITERATION     1


 AVERAGE FORCE                      3.267E+03   TIME AVG. FORCE       3.267E+03
 LARGEST RESIDUAL FORCE             8.290E-10   AT NODE          1   DOF  2
   INSTANCE: PIEZO-1                                                                         
 LARGEST INCREMENT OF DISP.        -4.730E-16   AT NODE       1206   DOF  2
   INSTANCE: CYLINDER-1                                                                      
 LARGEST CORRECTION TO DISP.        2.733E-25   AT NODE       1847   DOF  2
   INSTANCE: CYLINDER-1                                                                      
          THE FORCE     EQUILIBRIUM RESPONSE WAS LINEAR IN THIS INCREMENT

 AVERAGE CHARGE                     5.456E-18   TIME AVG. CHARGE      1.000E-02
 LARGEST RESIDUAL CHARGE            2.131E-26   AT NODE         86   DOF  9
   INSTANCE: PIEZO-1                                                                         
 LARGEST INCREMENT OF E. POT.       6.768E-07   AT NODE        148   DOF  9
   INSTANCE: PIEZO-1                                                                         
 LARGEST CORRECTION TO E. POT.      2.075E-10   AT NODE        148   DOF  9
   INSTANCE: PIEZO-1                                                                         
          THERE IS ZERO CHARGE    EVERYWHERE
 

 ***WARNING: THERE IS ZERO CHARGE EVERYWHERE IN THE MODEL BASED ON THE DEFAULT 
             CRITERION. PLEASE CHECK THE VALUE OF THE AVERAGE CHARGE DURING THE 
             CURRENT ITERATION TO VERIFY THAT THE CHARGE IS SMALL ENOUGH TO BE 
             TREATED AS ZERO. IF NOT, PLEASE USE THE SOLUTION CONTROLS TO RESET 
             THE CRITERION FOR ZERO CHARGE.

  MAXIMUM HALF-INCREMENT FORCE RESIDUAL IS   3.835E-04 AND OCCURS AT NODE       2115 INSTANCE CYLINDER-1                                                                      
          TIME INCREMENT MAY NOW INCREASE TO    6.939E-12

 ITERATION SUMMARY FOR THE INCREMENT:   1 TOTAL ITERATIONS, OF WHICH
   0 ARE SEVERE DISCONTINUITY ITERATIONS AND  1 ARE EQUILIBRIUM ITERATIONS.

 TIME INCREMENT COMPLETED  5.551E-12,  FRACTION OF STEP COMPLETED  5.511E-11
 STEP TIME COMPLETED       2.756E-11,  TOTAL TIME COMPLETED        2.756E-11


  INCREMENT    22 STARTS. ATTEMPT NUMBER  1, TIME INCREMENT  6.939E-12

  NUMBER OF EQUATIONS =    29113     NUMBER OF FLOATING PT. OPERATIONS =  5.77E+09

  USING THE DIRECT SOLVER WITH   8 PROCESSORS

     CHECK POINT   START OF SOLVER    

     CHECK POINT  END OF SOLVER       

       ELAPSED USER TIME (SEC)      =   1.8000    
       ELAPSED SYSTEM TIME (SEC)    =   0.0000    
       ELAPSED TOTAL CPU TIME (SEC) =   1.8000    
       ELAPSED WALLCLOCK TIME (SEC) =          0

               CONVERGENCE CHECKS FOR EQUILIBRIUM ITERATION     1


 AVERAGE FORCE                      3.267E+03   TIME AVG. FORCE       3.267E+03
 LARGEST RESIDUAL FORCE             4.029E-10   AT NODE       2114   DOF  2
   INSTANCE: CYLINDER-1                                                                      
 LARGEST INCREMENT OF DISP.        -7.403E-16   AT NODE       1206   DOF  2
   INSTANCE: CYLINDER-1                                                                      
 LARGEST CORRECTION TO DISP.        5.376E-25   AT NODE       1206   DOF  2
   INSTANCE: CYLINDER-1                                                                      
          THE FORCE     EQUILIBRIUM RESPONSE WAS LINEAR IN THIS INCREMENT

 AVERAGE CHARGE                     8.550E-18   TIME AVG. CHARGE      1.000E-02
 LARGEST RESIDUAL CHARGE            4.654E-26   AT NODE         86   DOF  9
   INSTANCE: PIEZO-1                                                                         
 LARGEST INCREMENT OF E. POT.       1.059E-06   AT NODE        148   DOF  9
   INSTANCE: PIEZO-1                                                                         
 LARGEST CORRECTION TO E. POT.     -3.561E-10   AT NODE        148   DOF  9
   INSTANCE: PIEZO-1                                                                         
          THERE IS ZERO CHARGE    EVERYWHERE
 

 ***WARNING: THERE IS ZERO CHARGE EVERYWHERE IN THE MODEL BASED ON THE DEFAULT 
             CRITERION. PLEASE CHECK THE VALUE OF THE AVERAGE CHARGE DURING THE 
             CURRENT ITERATION TO VERIFY THAT THE CHARGE IS SMALL ENOUGH TO BE 
             TREATED AS ZERO. IF NOT, PLEASE USE THE SOLUTION CONTROLS TO RESET 
             THE CRITERION FOR ZERO CHARGE.

  MAXIMUM HALF-INCREMENT FORCE RESIDUAL IS   4.792E-04 AND OCCURS AT NODE       3090 INSTANCE CYLINDER-1                                                                      
          TIME INCREMENT MAY NOW INCREASE TO    8.674E-12

 ITERATION SUMMARY FOR THE INCREMENT:   1 TOTAL ITERATIONS, OF WHICH
   0 ARE SEVERE DISCONTINUITY ITERATIONS AND  1 ARE EQUILIBRIUM ITERATIONS.

 TIME INCREMENT COMPLETED  6.939E-12,  FRACTION OF STEP COMPLETED  6.899E-11
 STEP TIME COMPLETED       3.449E-11,  TOTAL TIME COMPLETED        3.449E-11


  INCREMENT    23 STARTS. ATTEMPT NUMBER  1, TIME INCREMENT  8.674E-12

  NUMBER OF EQUATIONS =    29113     NUMBER OF FLOATING PT. OPERATIONS =  5.77E+09

  USING THE DIRECT SOLVER WITH   8 PROCESSORS

     CHECK POINT   START OF SOLVER    

     CHECK POINT  END OF SOLVER       

       ELAPSED USER TIME (SEC)      =   1.8000    
       ELAPSED SYSTEM TIME (SEC)    =  0.10000    
       ELAPSED TOTAL CPU TIME (SEC) =   1.9000    
       ELAPSED WALLCLOCK TIME (SEC) =          0

               CONVERGENCE CHECKS FOR EQUILIBRIUM ITERATION     1


 AVERAGE FORCE                      3.267E+03   TIME AVG. FORCE       3.267E+03
 LARGEST RESIDUAL FORCE             5.518E-10   AT NODE          1   DOF  2
   INSTANCE: PIEZO-1                                                                         
 LARGEST INCREMENT OF DISP.        -1.158E-15   AT NODE       1206   DOF  2
   INSTANCE: CYLINDER-1                                                                      
 LARGEST CORRECTION TO DISP.        1.064E-24   AT NODE         74   DOF  2
   INSTANCE: PIEZO-1                                                                         
          THE FORCE     EQUILIBRIUM RESPONSE WAS LINEAR IN THIS INCREMENT

 AVERAGE CHARGE                     1.339E-17   TIME AVG. CHARGE      1.000E-02
 LARGEST RESIDUAL CHARGE            1.029E-25   AT NODE        142   DOF  9
   INSTANCE: PIEZO-1                                                                         
 LARGEST INCREMENT OF E. POT.       1.657E-06   AT NODE        148   DOF  9
   INSTANCE: PIEZO-1                                                                         
 LARGEST CORRECTION TO E. POT.      5.643E-10   AT NODE        148   DOF  9
   INSTANCE: PIEZO-1                                                                         
          THERE IS ZERO CHARGE    EVERYWHERE
 

 ***WARNING: THERE IS ZERO CHARGE EVERYWHERE IN THE MODEL BASED ON THE DEFAULT 
             CRITERION. PLEASE CHECK THE VALUE OF THE AVERAGE CHARGE DURING THE 
             CURRENT ITERATION TO VERIFY THAT THE CHARGE IS SMALL ENOUGH TO BE 
             TREATED AS ZERO. IF NOT, PLEASE USE THE SOLUTION CONTROLS TO RESET 
             THE CRITERION FOR ZERO CHARGE.

  MAXIMUM HALF-INCREMENT FORCE RESIDUAL IS   5.988E-04 AND OCCURS AT NODE        843 INSTANCE CYLINDER-1                                                                      
          TIME INCREMENT MAY NOW INCREASE TO    1.084E-11

 ITERATION SUMMARY FOR THE INCREMENT:   1 TOTAL ITERATIONS, OF WHICH
   0 ARE SEVERE DISCONTINUITY ITERATIONS AND  1 ARE EQUILIBRIUM ITERATIONS.

 TIME INCREMENT COMPLETED  8.674E-12,  FRACTION OF STEP COMPLETED  8.634E-11
 STEP TIME COMPLETED       4.317E-11,  TOTAL TIME COMPLETED        4.317E-11


  INCREMENT    24 STARTS. ATTEMPT NUMBER  1, TIME INCREMENT  1.084E-11

  NUMBER OF EQUATIONS =    29113     NUMBER OF FLOATING PT. OPERATIONS =  5.77E+09

  USING THE DIRECT SOLVER WITH   8 PROCESSORS

     CHECK POINT   START OF SOLVER    

     CHECK POINT  END OF SOLVER       

       ELAPSED USER TIME (SEC)      =   1.7000    
       ELAPSED SYSTEM TIME (SEC)    =   0.0000    
       ELAPSED TOTAL CPU TIME (SEC) =   1.7000    
       ELAPSED WALLCLOCK TIME (SEC) =          1

               CONVERGENCE CHECKS FOR EQUILIBRIUM ITERATION     1


 AVERAGE FORCE                      3.267E+03   TIME AVG. FORCE       3.267E+03
 LARGEST RESIDUAL FORCE             4.084E-10   AT NODE        843   DOF  2
   INSTANCE: CYLINDER-1                                                                      
 LARGEST INCREMENT OF DISP.        -1.811E-15   AT NODE       1206   DOF  2
   INSTANCE: CYLINDER-1                                                                      
 LARGEST CORRECTION TO DISP.        2.168E-24   AT NODE       1564   DOF  2
   INSTANCE: CYLINDER-1                                                                      
          THE FORCE     EQUILIBRIUM RESPONSE WAS LINEAR IN THIS INCREMENT

 AVERAGE CHARGE                     2.096E-17   TIME AVG. CHARGE      1.000E-02
 LARGEST RESIDUAL CHARGE            2.304E-25   AT NODE        146   DOF  9
   INSTANCE: PIEZO-1                                                                         
 LARGEST INCREMENT OF E. POT.       2.592E-06   AT NODE        148   DOF  9
   INSTANCE: PIEZO-1                                                                         
 LARGEST CORRECTION TO E. POT.     -8.507E-10   AT NODE        148   DOF  9
   INSTANCE: PIEZO-1                                                                         
          THERE IS ZERO CHARGE    EVERYWHERE
 

 ***WARNING: THERE IS ZERO CHARGE EVERYWHERE IN THE MODEL BASED ON THE DEFAULT 
             CRITERION. PLEASE CHECK THE VALUE OF THE AVERAGE CHARGE DURING THE 
             CURRENT ITERATION TO VERIFY THAT THE CHARGE IS SMALL ENOUGH TO BE 
             TREATED AS ZERO. IF NOT, PLEASE USE THE SOLUTION CONTROLS TO RESET 
             THE CRITERION FOR ZERO CHARGE.

  MAXIMUM HALF-INCREMENT FORCE RESIDUAL IS   7.480E-04 AND OCCURS AT NODE       3090 INSTANCE CYLINDER-1                                                                      
          TIME INCREMENT MAY NOW INCREASE TO    1.355E-11

 ITERATION SUMMARY FOR THE INCREMENT:   1 TOTAL ITERATIONS, OF WHICH
   0 ARE SEVERE DISCONTINUITY ITERATIONS AND  1 ARE EQUILIBRIUM ITERATIONS.

 TIME INCREMENT COMPLETED  1.084E-11,  FRACTION OF STEP COMPLETED  1.080E-10
 STEP TIME COMPLETED       5.401E-11,  TOTAL TIME COMPLETED        5.401E-11


  INCREMENT    25 STARTS. ATTEMPT NUMBER  1, TIME INCREMENT  1.355E-11

  NUMBER OF EQUATIONS =    29113     NUMBER OF FLOATING PT. OPERATIONS =  5.77E+09

  USING THE DIRECT SOLVER WITH   8 PROCESSORS

     CHECK POINT   START OF SOLVER    

     CHECK POINT  END OF SOLVER       

       ELAPSED USER TIME (SEC)      =   1.6000    
       ELAPSED SYSTEM TIME (SEC)    =   0.0000    
       ELAPSED TOTAL CPU TIME (SEC) =   1.6000    
       ELAPSED WALLCLOCK TIME (SEC) =          0

               CONVERGENCE CHECKS FOR EQUILIBRIUM ITERATION     1


 AVERAGE FORCE                      3.267E+03   TIME AVG. FORCE       3.267E+03
 LARGEST RESIDUAL FORCE             3.736E-10   AT NODE         77   DOF  2
   INSTANCE: PIEZO-1                                                                         
 LARGEST INCREMENT OF DISP.        -2.833E-15   AT NODE       1206   DOF  2
   INSTANCE: CYLINDER-1                                                                      
 LARGEST CORRECTION TO DISP.        4.480E-24   AT NODE       1564   DOF  2
   INSTANCE: CYLINDER-1                                                                      
          THE FORCE     EQUILIBRIUM RESPONSE WAS LINEAR IN THIS INCREMENT

 AVERAGE CHARGE                     3.280E-17   TIME AVG. CHARGE      1.000E-02
 LARGEST RESIDUAL CHARGE            5.218E-25   AT NODE        146   DOF  9
   INSTANCE: PIEZO-1                                                                         
 LARGEST INCREMENT OF E. POT.       4.053E-06   AT NODE        148   DOF  9
   INSTANCE: PIEZO-1                                                                         
 LARGEST CORRECTION TO E. POT.      1.238E-09   AT NODE        148   DOF  9
   INSTANCE: PIEZO-1                                                                         
          THERE IS ZERO CHARGE    EVERYWHERE
 

 ***WARNING: THERE IS ZERO CHARGE EVERYWHERE IN THE MODEL BASED ON THE DEFAULT 
             CRITERION. PLEASE CHECK THE VALUE OF THE AVERAGE CHARGE DURING THE 
             CURRENT ITERATION TO VERIFY THAT THE CHARGE IS SMALL ENOUGH TO BE 
             TREATED AS ZERO. IF NOT, PLEASE USE THE SOLUTION CONTROLS TO RESET 
             THE CRITERION FOR ZERO CHARGE.

  MAXIMUM HALF-INCREMENT FORCE RESIDUAL IS   9.344E-04 AND OCCURS AT NODE       2115 INSTANCE CYLINDER-1                                                                      
          TIME INCREMENT MAY NOW INCREASE TO    1.694E-11

 ITERATION SUMMARY FOR THE INCREMENT:   1 TOTAL ITERATIONS, OF WHICH
   0 ARE SEVERE DISCONTINUITY ITERATIONS AND  1 ARE EQUILIBRIUM ITERATIONS.

 TIME INCREMENT COMPLETED  1.355E-11,  FRACTION OF STEP COMPLETED  1.351E-10
 STEP TIME COMPLETED       6.756E-11,  TOTAL TIME COMPLETED        6.756E-11


  INCREMENT    26 STARTS. ATTEMPT NUMBER  1, TIME INCREMENT  1.694E-11

  NUMBER OF EQUATIONS =    29113     NUMBER OF FLOATING PT. OPERATIONS =  5.77E+09

  USING THE DIRECT SOLVER WITH   8 PROCESSORS

     CHECK POINT   START OF SOLVER    

     CHECK POINT  END OF SOLVER       

       ELAPSED USER TIME (SEC)      =   1.6000    
       ELAPSED SYSTEM TIME (SEC)    =   0.0000    
       ELAPSED TOTAL CPU TIME (SEC) =   1.6000    
       ELAPSED WALLCLOCK TIME (SEC) =          0

               CONVERGENCE CHECKS FOR EQUILIBRIUM ITERATION     1


 AVERAGE FORCE                      3.267E+03   TIME AVG. FORCE       3.267E+03
 LARGEST RESIDUAL FORCE             4.238E-10   AT NODE       2600   DOF  2
   INSTANCE: CYLINDER-1                                                                      
 LARGEST INCREMENT OF DISP.        -4.429E-15   AT NODE       1206   DOF  2
[...]

  USING THE DIRECT SOLVER WITH   8 PROCESSORS

     CHECK POINT   START OF SOLVER    

     CHECK POINT  END OF SOLVER       

       ELAPSED USER TIME (SEC)      =   1.7000    
       ELAPSED SYSTEM TIME (SEC)    =   0.0000    
       ELAPSED TOTAL CPU TIME (SEC) =   1.7000    
       ELAPSED WALLCLOCK TIME (SEC) =          0

               CONVERGENCE CHECKS FOR EQUILIBRIUM ITERATION     1


 AVERAGE FORCE                      7.475E+03   TIME AVG. FORCE       2.764E+03
 LARGEST RESIDUAL FORCE            -5.472E-09   AT NODE        191   DOF  2
   INSTANCE: PIEZO-1                                                                         
 LARGEST INCREMENT OF DISP.         2.513E-04   AT NODE        308   DOF  2
   INSTANCE: PIEZO-1                                                                         
 LARGEST CORRECTION TO DISP.        1.158E-04   AT NODE        308   DOF  2
   INSTANCE: PIEZO-1                                                                         
          THE FORCE     EQUILIBRIUM RESPONSE WAS LINEAR IN THIS INCREMENT

 AVERAGE CHARGE                     9.901E-04   TIME AVG. CHARGE      3.082E-04
 LARGEST RESIDUAL CHARGE            1.880E-07   AT NODE        172   DOF  9
   INSTANCE: PIEZO-1                                                                         
 LARGEST INCREMENT OF E. POT.      -2.095E+07   AT NODE        232   DOF  9
   INSTANCE: PIEZO-1                                                                         
 LARGEST CORRECTION TO E. POT.     -1.542E+07   AT NODE        232   DOF  9
   INSTANCE: PIEZO-1                                                                         
 ESTIMATE OF E. POT.  CORRECTION     898.    
 CHARGE    EQUILIB. ACCEPTED BASED ON SMALL RESIDUAL AND ESTIMATED CORRECTION

  MAXIMUM HALF-INCREMENT FORCE RESIDUAL IS  -1.886E+06 AND OCCURS AT NODE        242 INSTANCE PIEZO-1                                                                         
          TIME INCREMENT MAY NOW INCREASE TO    9.496E-07

 ITERATION SUMMARY FOR THE INCREMENT:   1 TOTAL ITERATIONS, OF WHICH
   0 ARE SEVERE DISCONTINUITY ITERATIONS AND  1 ARE EQUILIBRIUM ITERATIONS.

 TIME INCREMENT COMPLETED  7.596E-07,  FRACTION OF STEP COMPLETED  7.596E-06
 STEP TIME COMPLETED       3.798E-06,  TOTAL TIME COMPLETED        3.798E-06


  INCREMENT    75 STARTS. ATTEMPT NUMBER  1, TIME INCREMENT  9.496E-07

  NUMBER OF EQUATIONS =    29113     NUMBER OF FLOATING PT. OPERATIONS =  5.77E+09

  USING THE DIRECT SOLVER WITH   8 PROCESSORS

     CHECK POINT   START OF SOLVER    

     CHECK POINT  END OF SOLVER       

       ELAPSED USER TIME (SEC)      =   1.8000    
       ELAPSED SYSTEM TIME (SEC)    =   0.0000    
       ELAPSED TOTAL CPU TIME (SEC) =   1.8000    
       ELAPSED WALLCLOCK TIME (SEC) =          0

               CONVERGENCE CHECKS FOR EQUILIBRIUM ITERATION     1


 AVERAGE FORCE                      1.997E+04   TIME AVG. FORCE       2.994E+03
 LARGEST RESIDUAL FORCE             2.258E-08   AT NODE        213   DOF  2
   INSTANCE: PIEZO-1                                                                         
 LARGEST INCREMENT OF DISP.         1.321E-03   AT NODE        308   DOF  2
   INSTANCE: PIEZO-1                                                                         
 LARGEST CORRECTION TO DISP.        5.519E-04   AT NODE        308   DOF  2
   INSTANCE: PIEZO-1                                                                         
          THE FORCE     EQUILIBRIUM RESPONSE WAS LINEAR IN THIS INCREMENT

 AVERAGE CHARGE                     4.462E-03   TIME AVG. CHARGE      1.139E-03
 LARGEST RESIDUAL CHARGE            4.263E-07   AT NODE        171   DOF  9
   INSTANCE: PIEZO-1                                                                         
 LARGEST INCREMENT OF E. POT.      -9.321E+07   AT NODE        232   DOF  9
   INSTANCE: PIEZO-1                                                                         
 LARGEST CORRECTION TO E. POT.     -6.702E+07   AT NODE        232   DOF  9
   INSTANCE: PIEZO-1                                                                         
 ESTIMATE OF E. POT.  CORRECTION    1.910E+03
 CHARGE    EQUILIB. ACCEPTED BASED ON SMALL RESIDUAL AND ESTIMATED CORRECTION

  MAXIMUM HALF-INCREMENT FORCE RESIDUAL IS  -8.525E+06 AND OCCURS AT NODE        284 INSTANCE PIEZO-1                                                                         
 

 ***NOTE: THE TIME INTEGRATION ACCURACY TOLERANCE HAS BEEN EXCEEDED.


  INCREMENT    75 STARTS. ATTEMPT NUMBER  2, TIME INCREMENT  2.835E-07

  NUMBER OF EQUATIONS =    29113     NUMBER OF FLOATING PT. OPERATIONS =  5.77E+09

  USING THE DIRECT SOLVER WITH   8 PROCESSORS

     CHECK POINT   START OF SOLVER    

     CHECK POINT  END OF SOLVER       

       ELAPSED USER TIME (SEC)      =   1.7000    
       ELAPSED SYSTEM TIME (SEC)    =   0.0000    
       ELAPSED TOTAL CPU TIME (SEC) =   1.7000    
       ELAPSED WALLCLOCK TIME (SEC) =          1

               CONVERGENCE CHECKS FOR EQUILIBRIUM ITERATION     1


 AVERAGE FORCE                      1.727E+05   TIME AVG. FORCE       5.030E+03
 LARGEST RESIDUAL FORCE            -2.384E-07   AT NODE        191   DOF  2
   INSTANCE: PIEZO-1                                                                         
 LARGEST INCREMENT OF DISP.         1.142E-03   AT NODE        308   DOF  2
   INSTANCE: PIEZO-1                                                                         
 LARGEST CORRECTION TO DISP.        9.875E-04   AT NODE        308   DOF  2
   INSTANCE: PIEZO-1                                                                         
          THE FORCE     EQUILIBRIUM RESPONSE WAS LINEAR IN THIS INCREMENT

 AVERAGE CHARGE                     1.473E-02   TIME AVG. CHARGE      3.193E-03
 LARGEST RESIDUAL CHARGE            2.703E-05   AT NODE        167   DOF  9
   INSTANCE: PIEZO-1                                                                         
 LARGEST INCREMENT OF E. POT.      -3.743E+08   AT NODE        232   DOF  9
   INSTANCE: PIEZO-1                                                                         
 LARGEST CORRECTION TO E. POT.     -3.665E+08   AT NODE        232   DOF  9
   INSTANCE: PIEZO-1                                                                         
          CHARGE    EQUILIBRIUM NOT ACHIEVED WITHIN TOLERANCE.

  NUMBER OF EQUATIONS =    29113     NUMBER OF FLOATING PT. OPERATIONS =  5.77E+09

  USING THE DIRECT SOLVER WITH   8 PROCESSORS

     CHECK POINT   START OF SOLVER    

     CHECK POINT  END OF SOLVER       

       ELAPSED USER TIME (SEC)      =   1.6000    
       ELAPSED SYSTEM TIME (SEC)    =  0.10000    
       ELAPSED TOTAL CPU TIME (SEC) =   1.7000    
       ELAPSED WALLCLOCK TIME (SEC) =          0

               CONVERGENCE CHECKS FOR EQUILIBRIUM ITERATION     2


 AVERAGE FORCE                      1.727E+05   TIME AVG. FORCE       5.031E+03
 LARGEST RESIDUAL FORCE            -6.706E-08   AT NODE         39   DOF  2
   INSTANCE: PIEZO-1                                                                         
 LARGEST INCREMENT OF DISP.         1.141E-03   AT NODE        308   DOF  2
   INSTANCE: PIEZO-1                                                                         
 LARGEST CORRECTION TO DISP.       -2.511E-07   AT NODE        308   DOF  2
   INSTANCE: PIEZO-1                                                                         
          THE FORCE     EQUILIBRIUM EQUATIONS HAVE CONVERGED

 AVERAGE CHARGE                     1.473E-02   TIME AVG. CHARGE      3.193E-03
 LARGEST RESIDUAL CHARGE           -2.651E-08   AT NODE        167   DOF  9
   INSTANCE: PIEZO-1                                                                         
 LARGEST INCREMENT OF E. POT.      -3.743E+08   AT NODE        232   DOF  9
   INSTANCE: PIEZO-1                                                                         
 LARGEST CORRECTION TO E. POT.     -4.593E+04   AT NODE        231   DOF  9
   INSTANCE: PIEZO-1                                                                         
          THE CHARGE    EQUILIBRIUM EQUATIONS HAVE CONVERGED

  MAXIMUM HALF-INCREMENT FORCE RESIDUAL IS   3.723E+07 AND OCCURS AT NODE         13 INSTANCE PIEZO-1                                                                         
 

 ***NOTE: THE TIME INTEGRATION ACCURACY TOLERANCE HAS BEEN EXCEEDED.


  INCREMENT    75 STARTS. ATTEMPT NUMBER  3, TIME INCREMENT  3.256E-08

  NUMBER OF EQUATIONS =    29113     NUMBER OF FLOATING PT. OPERATIONS =  5.77E+09

  USING THE DIRECT SOLVER WITH   8 PROCESSORS

     CHECK POINT   START OF SOLVER    

     CHECK POINT  END OF SOLVER       

       ELAPSED USER TIME (SEC)      =   1.6000    
       ELAPSED SYSTEM TIME (SEC)    =  0.10000    
       ELAPSED TOTAL CPU TIME (SEC) =   1.7000    
       ELAPSED WALLCLOCK TIME (SEC) =          0

               CONVERGENCE CHECKS FOR EQUILIBRIUM ITERATION     1


 AVERAGE FORCE                      1.904E+06   TIME AVG. FORCE       2.811E+04
 LARGEST RESIDUAL FORCE            -1.967E-06   AT NODE        256   DOF  2
   INSTANCE: PIEZO-1                                                                         
 LARGEST INCREMENT OF DISP.         2.023E-04   AT NODE        308   DOF  2
   INSTANCE: PIEZO-1                                                                         
 LARGEST CORRECTION TO DISP.        2.023E-04   AT NODE        308   DOF  2
   INSTANCE: PIEZO-1                                                                         
          THE FORCE     EQUILIBRIUM RESPONSE WAS LINEAR IN THIS INCREMENT

 AVERAGE CHARGE                     0.127       TIME AVG. CHARGE      2.568E-02
 LARGEST RESIDUAL CHARGE            8.850E-06   AT NODE        165   DOF  9
   INSTANCE: PIEZO-1                                                                         
 LARGEST INCREMENT OF E. POT.      -3.463E+09   AT NODE        232   DOF  9
   INSTANCE: PIEZO-1                                                                         
 LARGEST CORRECTION TO E. POT.     -3.463E+09   AT NODE        232   DOF  9
   INSTANCE: PIEZO-1                                                                         
          E. POT.  CORRECTION TOO LARGE COMPARED TO E. POT.  INCREMENT

  NUMBER OF EQUATIONS =    29113     NUMBER OF FLOATING PT. OPERATIONS =  5.77E+09

  USING THE DIRECT SOLVER WITH   8 PROCESSORS

     CHECK POINT   START OF SOLVER    

     CHECK POINT  END OF SOLVER       

       ELAPSED USER TIME (SEC)      =   1.6000    
       ELAPSED SYSTEM TIME (SEC)    =   0.0000    
       ELAPSED TOTAL CPU TIME (SEC) =   1.6000    
       ELAPSED WALLCLOCK TIME (SEC) =          1

               CONVERGENCE CHECKS FOR EQUILIBRIUM ITERATION     2


 AVERAGE FORCE                      1.904E+06   TIME AVG. FORCE       2.811E+04
 LARGEST RESIDUAL FORCE            -7.451E-07   AT NODE        165   DOF  2
   INSTANCE: PIEZO-1                                                                         
 LARGEST INCREMENT OF DISP.         2.023E-04   AT NODE        308   DOF  2
   INSTANCE: PIEZO-1                                                                         
 LARGEST CORRECTION TO DISP.       -2.099E-09   AT NODE        308   DOF  2
   INSTANCE: PIEZO-1                                                                         
          THE FORCE     EQUILIBRIUM EQUATIONS HAVE CONVERGED

 AVERAGE CHARGE                     0.127       TIME AVG. CHARGE      2.568E-02
 LARGEST RESIDUAL CHARGE           -2.612E-10   AT NODE        207   DOF  9
   INSTANCE: PIEZO-1                                                                         
 LARGEST INCREMENT OF E. POT.      -3.463E+09   AT NODE        232   DOF  9
   INSTANCE: PIEZO-1                                                                         
 LARGEST CORRECTION TO E. POT.     -1.346E+04   AT NODE        225   DOF  9
   INSTANCE: PIEZO-1                                                                         
          THE CHARGE    EQUILIBRIUM EQUATIONS HAVE CONVERGED

  MAXIMUM HALF-INCREMENT FORCE RESIDUAL IS   3.938E+08 AND OCCURS AT NODE         11 INSTANCE PIEZO-1                                                                         
 

 ***NOTE: THE TIME INTEGRATION ACCURACY TOLERANCE HAS BEEN EXCEEDED.


  INCREMENT    75 STARTS. ATTEMPT NUMBER  4, TIME INCREMENT  1.976E-09

  NUMBER OF EQUATIONS =    29113     NUMBER OF FLOATING PT. OPERATIONS =  5.77E+09

  USING THE DIRECT SOLVER WITH   8 PROCESSORS

     CHECK POINT   START OF SOLVER    

     CHECK POINT  END OF SOLVER       

       ELAPSED USER TIME (SEC)      =   1.6000    
       ELAPSED SYSTEM TIME (SEC)    =   0.0000    
       ELAPSED TOTAL CPU TIME (SEC) =   1.6000    
       ELAPSED WALLCLOCK TIME (SEC) =          0

               CONVERGENCE CHECKS FOR EQUILIBRIUM ITERATION     1


 AVERAGE FORCE                      3.178E+07   TIME AVG. FORCE       4.265E+05
 LARGEST RESIDUAL FORCE            -3.433E-05   AT NODE        180   DOF  2
   INSTANCE: PIEZO-1                                                                         
 LARGEST INCREMENT OF DISP.         1.244E-05   AT NODE        308   DOF  2
   INSTANCE: PIEZO-1                                                                         
 LARGEST CORRECTION TO DISP.        1.244E-05   AT NODE        308   DOF  2
   INSTANCE: PIEZO-1                                                                         
          THE FORCE     EQUILIBRIUM RESPONSE WAS LINEAR IN THIS INCREMENT

 AVERAGE CHARGE                      2.10       TIME AVG. CHARGE      0.419    
 LARGEST RESIDUAL CHARGE            5.513E-07   AT NODE        179   DOF  9
   INSTANCE: PIEZO-1                                                                         
 LARGEST INCREMENT OF E. POT.      -5.747E+10   AT NODE        232   DOF  9
   INSTANCE: PIEZO-1                                                                         
 LARGEST CORRECTION TO E. POT.     -5.747E+10   AT NODE        232   DOF  9
   INSTANCE: PIEZO-1                                                                         
          E. POT.  CORRECTION TOO LARGE COMPARED TO E. POT.  INCREMENT

  NUMBER OF EQUATIONS =    29113     NUMBER OF FLOATING PT. OPERATIONS =  5.77E+09

  USING THE DIRECT SOLVER WITH   8 PROCESSORS

     CHECK POINT   START OF SOLVER    

     CHECK POINT  END OF SOLVER       

       ELAPSED USER TIME (SEC)      =   1.7000    
       ELAPSED SYSTEM TIME (SEC)    =   0.0000    
       ELAPSED TOTAL CPU TIME (SEC) =   1.7000    
       ELAPSED WALLCLOCK TIME (SEC) =          0

               CONVERGENCE CHECKS FOR EQUILIBRIUM ITERATION     2


 AVERAGE FORCE                      3.178E+07   TIME AVG. FORCE       4.265E+05
 LARGEST RESIDUAL FORCE             1.335E-05   AT NODE        208   DOF  2
   INSTANCE: PIEZO-1                                                                         
 LARGEST INCREMENT OF DISP.         1.244E-05   AT NODE        308   DOF  2
   INSTANCE: PIEZO-1                                                                         
 LARGEST CORRECTION TO DISP.       -4.879E-13   AT NODE        308   DOF  2
   INSTANCE: PIEZO-1                                                                         
          THE FORCE     EQUILIBRIUM EQUATIONS HAVE CONVERGED

 AVERAGE CHARGE                      2.10       TIME AVG. CHARGE      0.419    
 LARGEST RESIDUAL CHARGE           -6.617E-14   AT NODE        208   DOF  9
   INSTANCE: PIEZO-1                                                                         
 LARGEST INCREMENT OF E. POT.      -5.747E+10   AT NODE        232   DOF  9
   INSTANCE: PIEZO-1                                                                         
 LARGEST CORRECTION TO E. POT.      -836.       AT NODE        231   DOF  9
   INSTANCE: PIEZO-1                                                                         
          THE CHARGE    EQUILIBRIUM EQUATIONS HAVE CONVERGED

  MAXIMUM HALF-INCREMENT FORCE RESIDUAL IS   6.547E+09 AND OCCURS AT NODE         11 INSTANCE PIEZO-1                                                                         
 

 ***NOTE: THE TIME INTEGRATION ACCURACY TOLERANCE HAS BEEN EXCEEDED.


  INCREMENT    75 STARTS. ATTEMPT NUMBER  5, TIME INCREMENT  1.094E-10

  NUMBER OF EQUATIONS =    29113     NUMBER OF FLOATING PT. OPERATIONS =  5.77E+09

  USING THE DIRECT SOLVER WITH   8 PROCESSORS

     CHECK POINT   START OF SOLVER    

     CHECK POINT  END OF SOLVER       

       ELAPSED USER TIME (SEC)      =   1.7000    
       ELAPSED SYSTEM TIME (SEC)    =   0.0000    
       ELAPSED TOTAL CPU TIME (SEC) =   1.7000    
       ELAPSED WALLCLOCK TIME (SEC) =          1

               CONVERGENCE CHECKS FOR EQUILIBRIUM ITERATION     1


 AVERAGE FORCE                      5.742E+08   TIME AVG. FORCE       7.659E+06
 LARGEST RESIDUAL FORCE             4.470E-04   AT NODE        291   DOF  2
   INSTANCE: PIEZO-1                                                                         
 LARGEST INCREMENT OF DISP.         6.889E-07   AT NODE        308   DOF  2
   INSTANCE: PIEZO-1                                                                         
 LARGEST CORRECTION TO DISP.        6.889E-07   AT NODE        308   DOF  2
   INSTANCE: PIEZO-1                                                                         
          THE FORCE     EQUILIBRIUM RESPONSE WAS LINEAR IN THIS INCREMENT

 AVERAGE CHARGE                      37.8       TIME AVG. CHARGE       7.57    
 LARGEST RESIDUAL CHARGE            3.054E-08   AT NODE        179   DOF  9
   INSTANCE: PIEZO-1                                                                         
 LARGEST INCREMENT OF E. POT.      -1.038E+12   AT NODE        232   DOF  9
   INSTANCE: PIEZO-1                                                                         
 LARGEST CORRECTION TO E. POT.     -1.038E+12   AT NODE        232   DOF  9
   INSTANCE: PIEZO-1                                                                         
          THE CHARGE    EQUILIBRIUM RESPONSE WAS LINEAR IN THIS INCREMENT

  MAXIMUM HALF-INCREMENT FORCE RESIDUAL IS   1.183E+11 AND OCCURS AT NODE         11 INSTANCE PIEZO-1                                                                         
 

 ***NOTE: THE TIME INTEGRATION ACCURACY TOLERANCE HAS BEEN EXCEEDED.
 

 ***ERROR: TOO MANY ATTEMPTS MADE FOR THIS INCREMENT



     ANALYSIS SUMMARY:
     TOTAL OF         75  INCREMENTS
                       5  CUTBACKS IN AUTOMATIC INCREMENTATION
                      83  ITERATIONS INCLUDING CONTACT ITERATIONS IF PRESENT
                      85  PASSES THROUGH THE EQUATION SOLVER OF WHICH 
                      84  INVOLVE MATRIX DECOMPOSITION, INCLUDING
                       2  DECOMPOSITION(S) OF THE MASS MATRIX
                       1  REORDERING OF EQUATIONS TO MINIMIZE WAVEFRONT
                       0  ADDITIONAL RESIDUAL EVALUATIONS FOR LINE SEARCHES
                       0  ADDITIONAL OPERATOR EVALUATIONS FOR LINE SEARCHES
                      12  WARNING MESSAGES DURING USER INPUT PROCESSING
                      70  WARNING MESSAGES DURING ANALYSIS
                       0  ANALYSIS WARNINGS ARE NUMERICAL PROBLEM MESSAGES
                       0  ANALYSIS WARNINGS ARE NEGATIVE EIGENVALUE MESSAGES
                       1  ERROR MESSAGES



     JOB TIME SUMMARY
       USER TIME (SEC)      =   388.40    
       SYSTEM TIME (SEC)    =   37.700    
       TOTAL CPU TIME (SEC) =   426.10    
       WALLCLOCK TIME (SEC) =         73
