 Abaqus/Standard 6.13-1                  DATE 18-Feb-2016 TIME 13:33:06
 SUMMARY OF JOB INFORMATION:
 STEP  INC ATT SEVERE EQUIL TOTAL  TOTAL      STEP       INC OF       DOF    IF
               DISCON ITERS ITERS  TIME/    TIME/LPF    TIME/LPF    MONITOR RIKS
               ITERS               FREQ
   1     1   1     0     1     1  1.00e-013  1.00e-013  1.000e-013
   1     2   1     0     1     1  2.00e-013  2.00e-013  1.000e-013
   1     3   1     0     1     1  3.00e-013  3.00e-013  1.000e-013
   1     4   1     0     1     1  4.25e-013  4.25e-013  1.250e-013
   1     5   1     0     1     1  5.81e-013  5.81e-013  1.562e-013
   1     6   1     0     1     1  7.77e-013  7.77e-013  1.953e-013
   1     7   1     0     1     1  1.02e-012  1.02e-012  2.441e-013
   1     8   1     0     1     1  1.33e-012  1.33e-012  3.052e-013
   1     9   1     0     1     1  1.71e-012  1.71e-012  3.815e-013
   1    10   1     0     1     1  2.18e-012  2.18e-012  4.768e-013
   1    11   1     0     1     1  2.78e-012  2.78e-012  5.960e-013
   1    12   1     0     1     1  3.53e-012  3.53e-012  7.451e-013
   1    13   1     0     1     1  4.46e-012  4.46e-012  9.313e-013
   1    14   1     0     1     1  5.62e-012  5.62e-012  1.164e-012
   1    15   1     0     1     1  7.08e-012  7.08e-012  1.455e-012
   1    16   1     0     1     1  8.89e-012  8.89e-012  1.819e-012
   1    17   1     0     1     1  1.12e-011  1.12e-011  2.274e-012
   1    18   1     0     1     1  1.40e-011  1.40e-011  2.842e-012
   1    19   1     0     1     1  1.76e-011  1.76e-011  3.553e-012
   1    20   1     0     1     1  2.20e-011  2.20e-011  4.441e-012
   1    21   1     0     1     1  2.76e-011  2.76e-011  5.551e-012
   1    22   1     0     1     1  3.45e-011  3.45e-011  6.939e-012
   1    23   1     0     1     1  4.32e-011  4.32e-011  8.674e-012
   1    24   1     0     1     1  5.40e-011  5.40e-011  1.084e-011
   1    25   1     0     1     1  6.76e-011  6.76e-011  1.355e-011
   1    26   1     0     1     1  8.45e-011  8.45e-011  1.694e-011
   1    27   1     0     1     1  1.06e-010  1.06e-010  2.118e-011
   1    28   1     0     1     1  1.32e-010  1.32e-010  2.647e-011
   1    29   1     0     1     1  1.65e-010  1.65e-010  3.309e-011
   1    30   1     0     1     1  2.07e-010  2.07e-010  4.136e-011
   1    31   1     0     1     1  2.58e-010  2.58e-010  5.170e-011
   1    32   1     0     1     1  3.23e-010  3.23e-010  6.462e-011
   1    33   1     0     1     1  4.04e-010  4.04e-010  8.078e-011
   1    34   1     0     1     1  5.05e-010  5.05e-010  1.010e-010
   1    35   1     0     1     1  6.31e-010  6.31e-010  1.262e-010
   1    36   1     0     1     1  7.89e-010  7.89e-010  1.578e-010
   1    37   1     0     1     1  9.86e-010  9.86e-010  1.972e-010
   1    38   1     0     1     1  1.23e-009  1.23e-009  2.465e-010
   1    39   1     0     1     1  1.54e-009  1.54e-009  3.081e-010
   1    40   1     0     1     1  1.93e-009  1.93e-009  3.852e-010
   1    41   1     0     1     1  2.41e-009  2.41e-009  4.815e-010
   1    42   1     0     1     1  3.01e-009  3.01e-009  6.019e-010
   1    43   1     0     1     1  3.76e-009  3.76e-009  7.523e-010
   1    44   1     0     1     1  4.70e-009  4.70e-009  9.404e-010
   1    45   1     0     1     1  5.88e-009  5.88e-009  1.175e-009
   1    46   1     0     1     1  7.35e-009  7.35e-009  1.469e-009
   1    47   1     0     1     1  9.18e-009  9.18e-009  1.837e-009
   1    48   1     0     1     1  1.15e-008  1.15e-008  2.296e-009
   1    49   1     0     1     1  1.43e-008  1.43e-008  2.870e-009
   1    50   1     0     1     1  1.79e-008  1.79e-008  3.587e-009
   1    51   1     0     1     1  2.24e-008  2.24e-008  4.484e-009
   1    52   1     0     1     1  2.80e-008  2.80e-008  5.605e-009
   1    53   1     0     1     1  3.50e-008  3.50e-008  7.006e-009
   1    54   1     0     1     1  4.38e-008  4.38e-008  8.758e-009
   1    55   1     0     1     1  5.47e-008  5.47e-008  1.095e-008
   1    56   1     0     1     1  6.84e-008  6.84e-008  1.368e-008
   1    57   1     0     1     1  8.55e-008  8.55e-008  1.711e-008
   1    58   1     0     1     1  1.07e-007  1.07e-007  2.138e-008
   1    59   1     0     1     1  1.34e-007  1.34e-007  2.673e-008
   1    60   1     0     1     1  1.67e-007  1.67e-007  3.341e-008
   1    61   1     0     1     1  2.09e-007  2.09e-007  4.176e-008
   1    62   1     0     1     1  2.61e-007  2.61e-007  5.220e-008
   1    63   1     0     1     1  3.26e-007  3.26e-007  6.525e-008
   1    64   1     0     1     1  4.08e-007  4.08e-007  8.157e-008
   1    65   1     0     1     1  5.10e-007  5.10e-007  1.020e-007
   1    66   1     0     1     1  6.37e-007  6.37e-007  1.274e-007
   1    67   1     0     1     1  7.97e-007  7.97e-007  1.593e-007
   1    68   1     0     1     1  9.96e-007  9.96e-007  1.991e-007
   1    69   1     0     1     1  1.24e-006  1.24e-006  2.489e-007
   1    70   1     0     1     1  1.56e-006  1.56e-006  3.112e-007
   1    71   1     0     2     2  1.94e-006  1.94e-006  3.889e-007
   1    72   1     0     1     1  2.43e-006  2.43e-006  4.862e-007
   1    73   1     0     1     1  3.04e-006  3.04e-006  6.077e-007
   1    74   1     0     1     1  3.80e-006  3.80e-006  7.596e-007
   1    75   1U    0     1     1  3.80e-006  3.80e-006  9.496e-007
   1    75   2U    0     2     2  3.80e-006  3.80e-006  2.835e-007
   1    75   3U    0     2     2  3.80e-006  3.80e-006  3.256e-008
   1    75   4U    0     2     2  3.80e-006  3.80e-006  1.976e-009
   1    75   5U    0     1     1  3.80e-006  3.80e-006  1.094e-010
                          
 THE ANALYSIS HAS NOT BEEN COMPLETED
