 Abaqus/Standard 6.13-1                  DATE 10-Feb-2016 TIME 12:21:13
 SUMMARY OF JOB INFORMATION:
 STEP  INC ATT SEVERE EQUIL TOTAL  TOTAL      STEP       INC OF       DOF    IF
               DISCON ITERS ITERS  TIME/    TIME/LPF    TIME/LPF    MONITOR RIKS
               ITERS               FREQ
   1     1   1     0     1     1  1.00e-013  1.00e-013  1.000e-013
   1     2   1     0     1     1  2.00e-013  2.00e-013  1.000e-013
   1     3   1     0     1     1  3.00e-013  3.00e-013  1.000e-013
   1     4   1     0     1     1  4.25e-013  4.25e-013  1.250e-013
   1     5   1     0     1     1  5.81e-013  5.81e-013  1.562e-013
   1     6   1     0     1     1  7.77e-013  7.77e-013  1.953e-013
   1     7   1     0     1     1  1.02e-012  1.02e-012  2.441e-013
   1     8   1     0     1     1  1.33e-012  1.33e-012  3.052e-013
   1     9   1     0     1     1  1.71e-012  1.71e-012  3.815e-013
   1    10   1     0     1     1  2.18e-012  2.18e-012  4.768e-013
   1    11   1     0     1     1  2.78e-012  2.78e-012  5.960e-013
   1    12   1     0     1     1  3.53e-012  3.53e-012  7.451e-013
   1    13   1     0     1     1  4.46e-012  4.46e-012  9.313e-013
   1    14   1     0     1     1  5.62e-012  5.62e-012  1.164e-012
   1    15   1     0     1     1  7.08e-012  7.08e-012  1.455e-012
   1    16   1     0     1     1  8.89e-012  8.89e-012  1.819e-012
   1    17   1     0     1     1  1.12e-011  1.12e-011  2.274e-012
   1    18   1     0     1     1  1.40e-011  1.40e-011  2.842e-012
   1    19   1     0     1     1  1.76e-011  1.76e-011  3.553e-012
   1    20   1     0     1     1  2.20e-011  2.20e-011  4.441e-012
   1    21   1     0     1     1  2.76e-011  2.76e-011  5.551e-012
   1    22   1     0     1     1  3.45e-011  3.45e-011  6.939e-012
   1    23   1     0     1     1  4.32e-011  4.32e-011  8.674e-012
   1    24   1     0     1     1  5.40e-011  5.40e-011  1.084e-011
   1    25   1     0     1     1  6.76e-011  6.76e-011  1.355e-011
   1    26   1     0     1     1  8.45e-011  8.45e-011  1.694e-011
   1    27   1     0     1     1  1.06e-010  1.06e-010  2.118e-011
   1    28   1     0     1     1  1.32e-010  1.32e-010  2.647e-011
   1    29   1     0     1     1  1.65e-010  1.65e-010  3.309e-011
   1    30   1     0     1     1  2.07e-010  2.07e-010  4.136e-011
   1    31   1     0     1     1  2.58e-010  2.58e-010  5.170e-011
   1    32   1     0     1     1  3.23e-010  3.23e-010  6.462e-011
   1    33   1     0     1     1  4.04e-010  4.04e-010  8.078e-011
   1    34   1     0     1     1  5.05e-010  5.05e-010  1.010e-010
   1    35   1     0     1     1  6.31e-010  6.31e-010  1.262e-010
   1    36   1     0     1     1  7.89e-010  7.89e-010  1.578e-010
   1    37   1     0     1     1  9.86e-010  9.86e-010  1.972e-010
   1    38   1     0     1     1  1.23e-009  1.23e-009  2.465e-010
   1    39   1     0     1     1  1.54e-009  1.54e-009  3.081e-010
   1    40   1     0     1     1  1.93e-009  1.93e-009  3.852e-010
   1    41   1     0     1     1  2.41e-009  2.41e-009  4.815e-010
   1    42   1     0     1     1  3.01e-009  3.01e-009  6.019e-010
   1    43   1     0     1     1  3.76e-009  3.76e-009  7.523e-010
   1    44   1     0     1     1  4.70e-009  4.70e-009  9.404e-010
   1    45   1     0     1     1  5.88e-009  5.88e-009  1.175e-009
   1    46   1     0     1     1  7.35e-009  7.35e-009  1.469e-009
   1    47   1     0     1     1  9.18e-009  9.18e-009  1.837e-009
   1    48   1     0     1     1  1.15e-008  1.15e-008  2.296e-009
   1    49   1     0     1     1  1.43e-008  1.43e-008  2.870e-009
   1    50   1     0     1     1  1.79e-008  1.79e-008  3.587e-009
   1    51   1     0     1     1  2.24e-008  2.24e-008  4.484e-009
   1    52   1     0     1     1  2.80e-008  2.80e-008  5.605e-009
   1    53   1     0     1     1  3.50e-008  3.50e-008  7.006e-009
   1    54   1     0     1     1  4.38e-008  4.38e-008  8.758e-009
   1    55   1     0     1     1  5.47e-008  5.47e-008  1.095e-008
   1    56   1     0     1     1  6.84e-008  6.84e-008  1.368e-008
   1    57   1     0     1     1  8.55e-008  8.55e-008  1.711e-008
   1    58   1     0     1     1  1.07e-007  1.07e-007  2.138e-008
   1    59   1     0     1     1  1.34e-007  1.34e-007  2.673e-008
   1    60   1     0     1     1  1.67e-007  1.67e-007  3.341e-008
   1    61   1     0     1     1  2.09e-007  2.09e-007  4.176e-008
   1    62   1     0     1     1  2.61e-007  2.61e-007  5.220e-008
   1    63   1     0     1     1  3.26e-007  3.26e-007  6.525e-008
   1    64   1     0     1     1  4.08e-007  4.08e-007  8.157e-008
   1    65   1     0     1     1  5.10e-007  5.10e-007  1.020e-007
   1    66   1     0     1     1  6.37e-007  6.37e-007  1.274e-007
   1    67   1     0     1     1  7.97e-007  7.97e-007  1.593e-007
   1    68   1     0     1     1  9.96e-007  9.96e-007  1.991e-007
   1    69   1     0     1     1  1.24e-006  1.24e-006  2.489e-007
   1    70   1     0     1     1  1.56e-006  1.56e-006  3.112e-007
   1    71   1     0     1     1  1.94e-006  1.94e-006  3.889e-007
   1    72   1     0     1     1  2.43e-006  2.43e-006  4.862e-007
   1    73   1     0     1     1  3.04e-006  3.04e-006  6.077e-007
   1    74   1     0     1     1  3.80e-006  3.80e-006  7.596e-007
   1    75   1     0     2     2  4.75e-006  4.75e-006  9.496e-007
   1    76   1     0     2     2  5.93e-006  5.93e-006  1.187e-006
   1    77   1     0     2     2  7.42e-006  7.42e-006  1.484e-006
   1    78   1     0     2     2  9.27e-006  9.27e-006  1.855e-006
   1    79   1     0     2     2  1.16e-005  1.16e-005  2.318e-006
   1    80   1     0     2     2  1.45e-005  1.45e-005  2.898e-006
   1    81   1     0     2     2  1.81e-005  1.81e-005  3.622e-006
   1    82   1     0     2     2  2.26e-005  2.26e-005  4.528e-006
   1    83   1     0     2     2  2.83e-005  2.83e-005  5.660e-006
   1    84   1     0     2     2  3.54e-005  3.54e-005  7.075e-006
   1    85   1     0     2     2  4.42e-005  4.42e-005  8.843e-006
   1    86   1     0     2     2  5.53e-005  5.53e-005  1.105e-005
   1    87   1     0     2     2  6.91e-005  6.91e-005  1.382e-005
   1    88   1     0     2     2  8.64e-005  8.64e-005  1.727e-005
   1    89   1     0     2     2  0.000108   0.000108   2.159e-005
   1    90   1     0     2     2  0.000135   0.000135   2.699e-005
   1    91   1U    0     2     2  0.000135   0.000135   3.374e-005
   1    91   2     0     2     2  0.000160   0.000160   2.546e-005
   1    92   1U    0     2     2  0.000160   0.000160   2.546e-005
   1    92   2     0     2     2  0.000179   0.000179   1.833e-005
   1    93   1U    0     2     2  0.000179   0.000179   1.833e-005
   1    93   2     0     2     2  0.000192   0.000192   1.283e-005
   1    94   1     0     2     2  0.000204   0.000204   1.283e-005
   1    95   1     0     2     2  0.000217   0.000217   1.283e-005
   1    96   1     0     2     2  0.000233   0.000233   1.603e-005
   1    97   1     0     2     2  0.000253   0.000253   2.004e-005
   1    98   1     0     2     2  0.000278   0.000278   2.505e-005
   1    99   1     0     2     2  0.000310   0.000310   3.132e-005
   1   100   1     0     2     2  0.000349   0.000349   3.915e-005
   1   101   1     0     2     2  0.000398   0.000398   4.893e-005
   1   102   1     0     2     2  0.000459   0.000459   6.116e-005
   1   103   1U    0     2     2  0.000459   0.000459   7.646e-005
   1   103   2     0     2     2  0.000497   0.000497   3.795e-005
   1   104   1     0     2     2  0.000535   0.000535   3.795e-005
   1   105   1     0     2     2  0.000573   0.000573   3.795e-005
   1   106   1U    0     2     2  0.000573   0.000573   4.744e-005
   1   106   2     0     1     1  0.000613   0.000613   3.982e-005
   1   107   1     0     2     2  0.000652   0.000652   3.982e-005
   1   108   1     0     2     2  0.000692   0.000692   3.982e-005
   1   109   1     0     2     2  0.000732   0.000732   3.982e-005
   1   110   1     0     2     2  0.000782   0.000782   4.977e-005
   1   111   1     0     2     2  0.000844   0.000844   6.222e-005
   1   112   1     0     2     2  0.000906   0.000906   6.222e-005
   1   113   1     0     2     2  0.000968   0.000968   6.222e-005
   1   114   1U    0     2     2  0.000968   0.000968   6.222e-005
   1   114   2     0     1     1  0.00100    0.00100    3.324e-005
   1   115   1     0     2     2  0.00103    0.00103    3.324e-005
   1   116   1U    0     2     2  0.00103    0.00103    3.324e-005
   1   116   2     0     1     1  0.00105    0.00105    1.878e-005
   1   117   1U    0     1     1  0.00105    0.00105    1.878e-005
   1   117   2     0     1     1  0.00107    0.00107    1.271e-005
   1   118   1U    0     1     1  0.00107    0.00107    1.271e-005
   1   118   2     0     1     1  0.00108    0.00108    9.059e-006
   1   119   1     0     1     1  0.00108    0.00108    9.059e-006
   1   120   1U    0     1     1  0.00108    0.00108    9.059e-006
   1   120   2     0     1     1  0.00109    0.00109    7.450e-006
   1   121   1     0     1     1  0.00110    0.00110    7.450e-006
   1   122   1     0     2     2  0.00111    0.00111    7.450e-006
   1   123   1U    0     2     2  0.00111    0.00111    7.450e-006
   1   123   2     0     1     1  0.00111    0.00111    6.007e-006
   1   124   1     0     2     2  0.00112    0.00112    6.007e-006
   1   125   1     0     2     2  0.00112    0.00112    6.007e-006
   1   126   1     0     2     2  0.00113    0.00113    6.007e-006
   1   127   1     0     2     2  0.00114    0.00114    6.007e-006
   1   128   1     0     2     2  0.00114    0.00114    6.007e-006
   1   129   1     0     2     2  0.00115    0.00115    6.007e-006
   1   130   1     0     2     2  0.00115    0.00115    6.007e-006
   1   131   1     0     2     2  0.00116    0.00116    6.007e-006
   1   132   1     0     2     2  0.00117    0.00117    6.007e-006
   1   133   1     0     2     2  0.00117    0.00117    6.007e-006
   1   134   1     0     2     2  0.00118    0.00118    6.007e-006
   1   135   1     0     2     2  0.00118    0.00118    6.007e-006
   1   136   1     0     2     2  0.00119    0.00119    6.007e-006
   1   137   1     0     2     2  0.00120    0.00120    6.007e-006
   1   138   1     0     2     2  0.00120    0.00120    6.007e-006
   1   139   1     0     2     2  0.00121    0.00121    6.007e-006
   1   140   1     0     1     1  0.00122    0.00122    6.007e-006
   1   141   1     0     2     2  0.00122    0.00122    7.038e-006
   1   142   1     0     1     1  0.00123    0.00123    7.038e-006
   1   143   1     0     1     1  0.00124    0.00124    7.038e-006
   1   144   1     0     1     1  0.00124    0.00124    7.038e-006
   1   145   1     0     1     1  0.00125    0.00125    7.038e-006
   1   146   1     0     1     1  0.00126    0.00126    8.798e-006
   1   147   1     0     1     1  0.00127    0.00127    8.798e-006
   1   148   1     0     1     1  0.00128    0.00128    1.043e-005
   1   149   1     0     2     2  0.00129    0.00129    1.043e-005
   1   150   1     0     1     1  0.00130    0.00130    1.233e-005
   1   151   1     0     1     1  0.00131    0.00131    1.233e-005
   1   152   1     0     1     1  0.00133    0.00133    1.233e-005
   1   153   1     0     1     1  0.00134    0.00134    1.233e-005
   1   154   1     0     1     1  0.00135    0.00135    1.233e-005
   1   155   1     0     1     1  0.00137    0.00137    1.541e-005
   1   156   1     0     1     1  0.00138    0.00138    1.541e-005
   1   157   1     0     1     1  0.00140    0.00140    1.541e-005
   1   158   1     0     1     1  0.00141    0.00141    1.541e-005
   1   159   1     0     1     1  0.00143    0.00143    1.541e-005
   1   160   1     0     1     1  0.00144    0.00144    1.541e-005
   1   161   1     0     1     1  0.00146    0.00146    1.541e-005
   1   162   1     0     1     1  0.00148    0.00148    1.927e-005
   1   163   1     0     1     1  0.00150    0.00150    1.927e-005
   1   164   1     0     2     2  0.00152    0.00152    1.927e-005
   1   165   1     0     1     1  0.00154    0.00154    1.927e-005
   1   166   1     0     2     2  0.00156    0.00156    2.408e-005
   1   167   1     0     1     1  0.00158    0.00158    2.408e-005
   1   168   1     0     1     1  0.00161    0.00161    2.408e-005
   1   169   1     0     1     1  0.00163    0.00163    2.408e-005
   1   170   1     0     2     2  0.00166    0.00166    3.010e-005
   1   171   1     0     2     2  0.00169    0.00169    3.010e-005
   1   172   1     0     2     2  0.00172    0.00172    3.010e-005
   1   173   1     0     2     2  0.00175    0.00175    3.010e-005
   1   174   1     0     2     2  0.00179    0.00179    3.763e-005
   1   175   1     0     2     2  0.00184    0.00184    4.703e-005
   1   176   1     0     2     2  0.00190    0.00190    5.879e-005
   1   177   1     0     2     2  0.00195    0.00195    5.879e-005
   1   178   1     0     2     2  0.00201    0.00201    5.879e-005
   1   179   1     0     2     2  0.00209    0.00209    7.349e-005
   1   180   1U    0     2     2  0.00209    0.00209    7.349e-005
   1   180   2     0     2     2  0.00214    0.00214    5.542e-005
   1   181   1     0     2     2  0.00220    0.00220    5.542e-005
   1   182   1     0     2     2  0.00225    0.00225    5.542e-005
   1   183   1     0     2     2  0.00232    0.00232    6.528e-005
   1   184   1     0     2     2  0.00238    0.00238    6.528e-005
   1   185   1     0     2     2  0.00246    0.00246    8.160e-005
   1   186   1U    0     2     2  0.00246    0.00246    8.160e-005
   1   186   2     0     1     1  0.00252    0.00252    5.975e-005
   1   187   1     0     2     2  0.00258    0.00258    5.975e-005
   1   188   1     0     1     1  0.00264    0.00264    5.975e-005
   1   189   1     0     1     1  0.00270    0.00270    5.975e-005
   1   190   1     0     1     1  0.00276    0.00276    5.975e-005
   1   191   1     0     2     2  0.00282    0.00282    5.975e-005
   1   192   1     0     2     2  0.00288    0.00288    5.975e-005
   1   193   1     0     1     1  0.00294    0.00294    5.975e-005
   1   194   1     0     1     1  0.00300    0.00300    5.975e-005
   1   195   1     0     2     2  0.00308    0.00308    7.469e-005
   1   196   1     0     2     2  0.00315    0.00315    7.469e-005
   1   197   1U    0     1     1  0.00315    0.00315    7.469e-005
   1   197   2     0     1     1  0.00321    0.00321    6.131e-005
   1   198   1     0     2     2  0.00327    0.00327    6.131e-005
   1   199   1     0     1     1  0.00334    0.00334    6.131e-005
   1   200   1     0     2     2  0.00341    0.00341    7.664e-005
   1   201   1     0     1     1  0.00349    0.00349    7.664e-005
   1   202   1     0     1     1  0.00357    0.00357    7.664e-005
   1   203   1     0     1     1  0.00364    0.00364    7.664e-005
   1   204   1     0     2     2  0.00374    0.00374    9.580e-005
   1   205   1     0     1     1  0.00383    0.00383    9.580e-005
   1   206   1     0     1     1  0.00393    0.00393    9.580e-005
   1   207   1     0     2     2  0.00403    0.00403    0.0001000 
   1   208   1     0     2     2  0.00413    0.00413    0.0001000 
   1   209   1     0     2     2  0.00423    0.00423    0.0001000 
   1   210   1     0     2     2  0.00433    0.00433    0.0001000 
   1   211   1     0     2     2  0.00443    0.00443    0.0001000 
   1   212   1     0     2     2  0.00453    0.00453    0.0001000 
   1   213   1     0     1     1  0.00463    0.00463    0.0001000 
   1   214   1     0     2     2  0.00473    0.00473    0.0001000 
   1   215   1     0     1     1  0.00483    0.00483    0.0001000 
   1   216   1     0     1     1  0.00493    0.00493    0.0001000 
   1   217   1     0     2     2  0.00503    0.00503    0.0001000 
   1   218   1     0     1     1  0.00513    0.00513    0.0001000 
   1   219   1     0     2     2  0.00523    0.00523    0.0001000 
   1   220   1     0     2     2  0.00533    0.00533    0.0001000 
   1   221   1     0     1     1  0.00543    0.00543    0.0001000 
   1   222   1     0     2     2  0.00553    0.00553    0.0001000 
   1   223   1     0     1     1  0.00563    0.00563    0.0001000 
   1   224   1     0     1     1  0.00573    0.00573    0.0001000 
   1   225   1     0     1     1  0.00583    0.00583    0.0001000 
   1   226   1     0     1     1  0.00593    0.00593    0.0001000 
   1   227   1     0     1     1  0.00603    0.00603    0.0001000 
   1   228   1     0     1     1  0.00613    0.00613    0.0001000 
   1   229   1     0     1     1  0.00623    0.00623    0.0001000 
   1   230   1     0     1     1  0.00633    0.00633    0.0001000 
   1   231   1     0     1     1  0.00643    0.00643    0.0001000 
   1   232   1     0     1     1  0.00653    0.00653    0.0001000 
   1   233   1     0     1     1  0.00663    0.00663    0.0001000 
   1   234   1     0     1     1  0.00673    0.00673    0.0001000 
   1   235   1     0     1     1  0.00683    0.00683    0.0001000 
   1   236   1     0     1     1  0.00693    0.00693    0.0001000 
   1   237   1     0     1     1  0.00703    0.00703    0.0001000 
   1   238   1     0     1     1  0.00713    0.00713    0.0001000 
   1   239   1     0     2     2  0.00723    0.00723    0.0001000 
   1   240   1     0     1     1  0.00733    0.00733    0.0001000 
   1   241   1     0     1     1  0.00743    0.00743    0.0001000 
   1   242   1     0     2     2  0.00753    0.00753    0.0001000 
   1   243   1     0     2     2  0.00763    0.00763    0.0001000 
   1   244   1     0     1     1  0.00773    0.00773    0.0001000 
   1   245   1     0     2     2  0.00783    0.00783    0.0001000 
   1   246   1     0     1     1  0.00793    0.00793    0.0001000 
   1   247   1     0     1     1  0.00803    0.00803    0.0001000 
   1   248   1     0     1     1  0.00813    0.00813    0.0001000 
   1   249   1U    0     2     2  0.00813    0.00813    0.0001000 
   1   249   2     0     1     1  0.00820    0.00820    7.224e-005
   1   250   1     0     1     1  0.00827    0.00827    7.224e-005
   1   251   1     0     1     1  0.00835    0.00835    7.224e-005
   1   252   1     0     1     1  0.00844    0.00844    9.030e-005
   1   253   1     0     2     2  0.00853    0.00853    9.030e-005
   1   254   1U    0     2     2  0.00853    0.00853    9.030e-005
   1   254   2     0     1     1  0.00860    0.00860    6.833e-005
   1   255   1     0     1     1  0.00866    0.00866    6.833e-005
   1   256   1     0     1     1  0.00873    0.00873    6.833e-005
   1   257   1U    0     2     2  0.00873    0.00873    8.541e-005
   1   257   2     0     1     1  0.00880    0.00880    6.381e-005
   1   258   1     0     1     1  0.00886    0.00886    6.381e-005
   1   259   1     0     1     1  0.00892    0.00892    6.381e-005
   1   260   1     0     2     2  0.00899    0.00899    6.381e-005
   1   261   1U    0     2     2  0.00899    0.00899    6.381e-005
   1   261   2     0     1     1  0.00904    0.00904    5.025e-005
   1   262   1U    0     1     1  0.00904    0.00904    5.025e-005
   1   262   2     0     1     1  0.00908    0.00908    3.976e-005
   1   263   1     0     1     1  0.00912    0.00912    3.976e-005
   1   264   1     0     1     1  0.00916    0.00916    3.976e-005
   1   265   1U    0     1     1  0.00916    0.00916    3.976e-005
   1   265   2     0     1     1  0.00919    0.00919    3.104e-005
   1   266   1     0     1     1  0.00922    0.00922    3.104e-005
   1   267   1U    0     1     1  0.00922    0.00922    3.104e-005
   1   267   2     0     1     1  0.00924    0.00924    2.100e-005
   1   268   1     0     1     1  0.00926    0.00926    2.100e-005
   1   269   1U    0     1     1  0.00926    0.00926    2.100e-005
   1   269   2     0     1     1  0.00928    0.00928    1.453e-005
   1   270   1     0     1     1  0.00929    0.00929    1.453e-005
   1   271   1U    0     1     1  0.00929    0.00929    1.453e-005
   1   271   2     0     1     1  0.00930    0.00930    1.051e-005
   1   272   1     0     1     1  0.00931    0.00931    1.051e-005
   1   273   1U    0     1     1  0.00931    0.00931    1.051e-005
   1   273   2     0     1     1  0.00932    0.00932    7.526e-006
   1   274   1     0     1     1  0.00933    0.00933    7.526e-006
   1   275   1U    0     2     2  0.00933    0.00933    7.526e-006
   1   275   2     0     1     1  0.00933    0.00933    5.522e-006
   1   276   1     0     2     2  0.00934    0.00934    5.522e-006
   1   277   1U    0     2     2  0.00934    0.00934    5.522e-006
   1   277   2     0     1     1  0.00934    0.00934    3.983e-006
   1   278   1     0     2     2  0.00935    0.00935    3.983e-006
   1   279   1U    0     2     2  0.00935    0.00935    3.983e-006
   1   279   2     0     2     2  0.00935    0.00935    3.086e-006
   1   280   1     0     2     2  0.00935    0.00935    3.086e-006
   1   281   1U    0     2     2  0.00935    0.00935    3.086e-006
   1   281   2     0     2     2  0.00935    0.00935    2.435e-006
   1   282   1     0     2     2  0.00936    0.00936    2.435e-006
   1   283   1     0     2     2  0.00936    0.00936    2.435e-006
   1   284   1U    0     2     2  0.00936    0.00936    2.435e-006
   1   284   2     0     2     2  0.00936    0.00936    2.062e-006
   1   285   1     0     2     2  0.00936    0.00936    2.062e-006
   1   286   1     0     2     2  0.00936    0.00936    2.062e-006
   1   287   1     0     2     2  0.00937    0.00937    2.062e-006
   1   288   1     0     2     2  0.00937    0.00937    2.062e-006
   1   289   1     0     2     2  0.00937    0.00937    2.062e-006
   1   290   1     0     2     2  0.00937    0.00937    2.062e-006
   1   291   1     0     2     2  0.00938    0.00938    2.062e-006
   1   292   1     0     2     2  0.00938    0.00938    2.062e-006
   1   293   1     0     2     2  0.00938    0.00938    2.062e-006
   1   294   1     0     2     2  0.00938    0.00938    2.062e-006
   1   295   1     0     1     1  0.00938    0.00938    2.062e-006
   1   296   1     0     1     1  0.00939    0.00939    2.389e-006
   1   297   1     0     1     1  0.00939    0.00939    2.389e-006
   1   298   1     0     1     1  0.00939    0.00939    2.389e-006
   1   299   1     0     1     1  0.00939    0.00939    2.389e-006
   1   300   1     0     1     1  0.00940    0.00940    2.389e-006
   1   301   1     0     1     1  0.00940    0.00940    2.906e-006
   1   302   1     0     1     1  0.00940    0.00940    2.906e-006
   1   303   1     0     1     1  0.00940    0.00940    2.906e-006
   1   304   1     0     1     1  0.00941    0.00941    2.906e-006
   1   305   1     0     1     1  0.00941    0.00941    2.906e-006
   1   306   1     0     1     1  0.00941    0.00941    3.633e-006
   1   307   1     0     1     1  0.00942    0.00942    3.633e-006
   1   308   1     0     1     1  0.00942    0.00942    3.633e-006
   1   309   1     0     1     1  0.00942    0.00942    3.633e-006
   1   310   1     0     1     1  0.00943    0.00943    3.633e-006
   1   311   1     0     1     1  0.00943    0.00943    4.541e-006
   1   312   1     0     1     1  0.00944    0.00944    5.676e-006
   1   313   1     0     2     2  0.00945    0.00945    6.697e-006
   1   314   1     0     2     2  0.00945    0.00945    6.697e-006
   1   315   1     0     1     1  0.00946    0.00946    6.697e-006
   1   316   1     0     1     1  0.00947    0.00947    6.697e-006
   1   317   1     0     1     1  0.00947    0.00947    6.697e-006
   1   318   1     0     1     1  0.00948    0.00948    6.697e-006
   1   319   1     0     1     1  0.00949    0.00949    8.371e-006
   1   320   1     0     1     1  0.00950    0.00950    1.046e-005
   1   321   1     0     1     1  0.00951    0.00951    1.308e-005
   1   322   1     0     1     1  0.00953    0.00953    1.635e-005
   1   323   1     0     2     2  0.00955    0.00955    2.044e-005
   1   324   1     0     2     2  0.00957    0.00957    2.044e-005
   1   325   1     0     2     2  0.00959    0.00959    2.044e-005
   1   326   1     0     2     2  0.00961    0.00961    2.044e-005
   1   327   1     0     2     2  0.00963    0.00963    2.374e-005
   1   328   1     0     2     2  0.00966    0.00966    2.374e-005
   1   329   1     0     1     1  0.00968    0.00968    2.374e-005
   1   330   1     0     1     1  0.00970    0.00970    2.374e-005
   1   331   1     0     1     1  0.00973    0.00973    2.374e-005
   1   332   1     0     1     1  0.00975    0.00975    2.374e-005
   1   333   1     0     1     1  0.00977    0.00977    2.374e-005
   1   334   1     0     1     1  0.00980    0.00980    2.374e-005
   1   335   1     0     2     2  0.00983    0.00983    2.967e-005
   1   336   1     0     2     2  0.00986    0.00986    2.967e-005
   1   337   1     0     2     2  0.00989    0.00989    3.709e-005
   1   338   1     0     2     2  0.00994    0.00994    4.636e-005
   1   339   1     0     2     2  0.0100     0.0100     5.795e-005
   1   340   1     0     2     2  0.0101     0.0101     7.243e-005
   1   341   1     0     2     2  0.0102     0.0102     9.054e-005
   1   342   1U    0     2     2  0.0102     0.0102     9.054e-005
   1   342   2     0     1     1  0.0102     0.0102     6.645e-005
   1   343   1     0     2     2  0.0103     0.0103     6.645e-005
   1   344   1U    0     2     2  0.0103     0.0103     6.645e-005
   1   344   2     0     1     1  0.0103     0.0103     4.751e-005
   1   345   1     0     2     2  0.0104     0.0104     4.751e-005
   1   346   1     0     1     1  0.0104     0.0104     4.751e-005
   1   347   1     0     2     2  0.0105     0.0105     5.373e-005
   1   348   1     0     1     1  0.0105     0.0105     5.373e-005
   1   349   1U    0     1     1  0.0105     0.0105     5.373e-005
   1   349   2     0     1     1  0.0106     0.0106     4.292e-005
   1   350   1     0     1     1  0.0106     0.0106     4.292e-005
   1   351   1     0     1     1  0.0107     0.0107     4.292e-005
   1   352   1     0     1     1  0.0107     0.0107     4.292e-005
   1   353   1     0     1     1  0.0108     0.0108     4.292e-005
   1   354   1     0     1     1  0.0108     0.0108     4.292e-005
   1   355   1     0     1     1  0.0108     0.0108     4.292e-005
   1   356   1     0     1     1  0.0109     0.0109     4.292e-005
   1   357   1     0     1     1  0.0109     0.0109     4.292e-005
   1   358   1U    0     1     1  0.0109     0.0109     4.292e-005
   1   358   2     0     1     1  0.0110     0.0110     3.322e-005
   1   359   1     0     1     1  0.0110     0.0110     3.322e-005
   1   360   1     0     1     1  0.0110     0.0110     3.322e-005
   1   361   1     0     1     1  0.0111     0.0111     3.702e-005
   1   362   1     0     1     1  0.0111     0.0111     3.702e-005
   1   363   1     0     1     1  0.0111     0.0111     3.702e-005
   1   364   1     0     1     1  0.0112     0.0112     3.702e-005
   1   365   1U    0     1     1  0.0112     0.0112     3.702e-005
   1   365   2     0     1     1  0.0112     0.0112     2.990e-005
   1   366   1     0     1     1  0.0112     0.0112     2.990e-005
   1   367   1     0     1     1  0.0113     0.0113     2.990e-005
   1   368   1     0     1     1  0.0113     0.0113     2.990e-005
   1   369   1     0     1     1  0.0113     0.0113     2.990e-005
   1   370   1U    0     1     1  0.0113     0.0113     2.990e-005
   1   370   2     0     1     1  0.0114     0.0114     2.394e-005
   1   371   1     0     1     1  0.0114     0.0114     2.394e-005
   1   372   1U    0     1     1  0.0114     0.0114     2.394e-005
   1   372   2     0     1     1  0.0114     0.0114     1.863e-005
   1   373   1     0     1     1  0.0114     0.0114     1.863e-005
   1   374   1U    0     1     1  0.0114     0.0114     1.863e-005
   1   374   2     0     1     1  0.0114     0.0114     1.496e-005
   1   375   1     0     1     1  0.0114     0.0114     1.496e-005
   1   376   1U    0     1     1  0.0114     0.0114     1.496e-005
   1   376   2     0     1     1  0.0115     0.0115     1.174e-005
   1   377   1     0     1     1  0.0115     0.0115     1.174e-005
   1   378   1U    0     1     1  0.0115     0.0115     1.174e-005
   1   378   2     0     1     1  0.0115     0.0115     9.628e-006
   1   379   1     0     1     1  0.0115     0.0115     9.628e-006
   1   380   1U    0     2     2  0.0115     0.0115     9.628e-006
   1   380   2     0     1     1  0.0115     0.0115     7.705e-006
   1   381   1     0     2     2  0.0115     0.0115     7.705e-006
   1   382   1U    0     2     2  0.0115     0.0115     7.705e-006
   1   382   2     0     1     1  0.0115     0.0115     6.263e-006
   1   383   1     0     2     2  0.0115     0.0115     6.263e-006
   1   384   1     0     2     2  0.0115     0.0115     6.263e-006
   1   385   1U    0     2     2  0.0115     0.0115     6.263e-006
   1   385   2     0     1     1  0.0115     0.0115     4.821e-006
   1   386   1     0     2     2  0.0115     0.0115     4.821e-006
   1   387   1     0     2     2  0.0115     0.0115     4.821e-006
   1   388   1U    0     2     2  0.0115     0.0115     4.821e-006
   1   388   2     0     2     2  0.0115     0.0115     4.049e-006
   1   389   1     0     2     2  0.0115     0.0115     4.049e-006
   1   390   1     0     2     2  0.0115     0.0115     4.049e-006
   1   391   1     0     2     2  0.0116     0.0116     4.049e-006
   1   392   1     0     2     2  0.0116     0.0116     4.049e-006
   1   393   1     0     2     2  0.0116     0.0116     4.049e-006
   1   394   1     0     2     2  0.0116     0.0116     4.049e-006
   1   395   1     0     2     2  0.0116     0.0116     4.049e-006
   1   396   1     0     2     2  0.0116     0.0116     4.049e-006
   1   397   1     0     2     2  0.0116     0.0116     4.049e-006
   1   398   1     0     2     2  0.0116     0.0116     4.049e-006
   1   399   1     0     2     2  0.0116     0.0116     4.049e-006
   1   400   1     0     2     2  0.0116     0.0116     4.049e-006
   1   401   1     0     2     2  0.0116     0.0116     4.049e-006
   1   402   1     0     2     2  0.0116     0.0116     4.049e-006
   1   403   1     0     2     2  0.0116     0.0116     4.661e-006
   1   404   1     0     2     2  0.0116     0.0116     4.661e-006
   1   405   1     0     2     2  0.0116     0.0116     4.661e-006
   1   406   1     0     2     2  0.0116     0.0116     4.661e-006
   1   407   1     0     2     2  0.0116     0.0116     4.661e-006
   1   408   1     0     2     2  0.0116     0.0116     5.496e-006
   1   409   1     0     2     2  0.0116     0.0116     5.496e-006
   1   410   1     0     2     2  0.0116     0.0116     5.496e-006
   1   411   1     0     2     2  0.0116     0.0116     5.496e-006
   1   412   1     0     2     2  0.0116     0.0116     6.822e-006
   1   413   1     0     1     1  0.0117     0.0117     6.822e-006
   1   414   1     0     1     1  0.0117     0.0117     6.822e-006
   1   415   1     0     1     1  0.0117     0.0117     6.822e-006
   1   416   1     0     1     1  0.0117     0.0117     8.030e-006
   1   417   1     0     1     1  0.0117     0.0117     8.030e-006
   1   418   1     0     1     1  0.0117     0.0117     8.030e-006
   1   419   1     0     1     1  0.0117     0.0117     8.030e-006
   1   420   1     0     1     1  0.0117     0.0117     1.004e-005
   1   421   1     0     1     1  0.0117     0.0117     1.004e-005
   1   422   1     0     1     1  0.0117     0.0117     1.203e-005
   1   423   1     0     1     1  0.0117     0.0117     1.203e-005
   1   424   1     0     1     1  0.0118     0.0118     1.203e-005
   1   425   1     0     1     1  0.0118     0.0118     1.203e-005
   1   426   1     0     1     1  0.0118     0.0118     1.503e-005
   1   427   1     0     1     1  0.0118     0.0118     1.503e-005
   1   428   1     0     1     1  0.0118     0.0118     1.756e-005
   1   429   1     0     1     1  0.0118     0.0118     1.756e-005
   1   430   1     0     1     1  0.0119     0.0119     1.756e-005
   1   431   1     0     1     1  0.0119     0.0119     1.756e-005
   1   432   1     0     1     1  0.0119     0.0119     2.195e-005
   1   433   1     0     1     1  0.0119     0.0119     2.744e-005
   1   434   1     0     1     1  0.0119     0.0119     2.744e-005
   1   435   1     0     1     1  0.0120     0.0120     2.744e-005
   1   436   1     0     1     1  0.0120     0.0120     3.430e-005
   1   437   1     0     1     1  0.0121     0.0121     4.287e-005
   1   438   1     0     1     1  0.0121     0.0121     4.287e-005
   1   439   1     0     1     1  0.0121     0.0121     5.359e-005
   1   440   1     0     1     1  0.0122     0.0122     5.359e-005
   1   441   1     0     2     2  0.0123     0.0123     6.699e-005
   1   442   1     0     2     2  0.0124     0.0124     8.374e-005
   1   443   1     0     2     2  0.0125     0.0125     0.0001000 
   1   444   1     0     2     2  0.0126     0.0126     0.0001000 
   1   445   1     0     2     2  0.0127     0.0127     0.0001000 
   1   446   1     0     2     2  0.0128     0.0128     0.0001000 
   1   447   1     0     2     2  0.0129     0.0129     0.0001000 
   1   448   1U    0     2     2  0.0129     0.0129     0.0001000 
   1   448   2     0     1     1  0.0129     0.0129     8.450e-005
   1   449   1     0     2     2  0.0130     0.0130     8.450e-005
   1   450   1     0     2     2  0.0131     0.0131     8.450e-005
   1   451   1     0     2     2  0.0132     0.0132     8.450e-005
   1   452   1     0     2     2  0.0133     0.0133     8.450e-005
   1   453   1     0     2     2  0.0134     0.0134     8.450e-005
   1   454   1     0     2     2  0.0134     0.0134     8.450e-005
   1   455   1     0     2     2  0.0135     0.0135     8.450e-005
   1   456   1     0     1     1  0.0136     0.0136     8.450e-005
   1   457   1     0     1     1  0.0137     0.0137     8.450e-005
   1   458   1     0     1     1  0.0138     0.0138     8.450e-005
   1   459   1     0     1     1  0.0139     0.0139     8.450e-005
   1   460   1     0     1     1  0.0139     0.0139     8.450e-005
   1   461   1     0     1     1  0.0140     0.0140     8.450e-005
   1   462   1     0     1     1  0.0141     0.0141     8.450e-005
   1   463   1     0     1     1  0.0142     0.0142     8.450e-005
   1   464   1     0     1     1  0.0143     0.0143     8.450e-005
   1   465   1     0     1     1  0.0144     0.0144     8.450e-005
   1   466   1     0     1     1  0.0145     0.0145     8.450e-005
   1   467   1     0     1     1  0.0145     0.0145     8.450e-005
   1   468   1     0     1     1  0.0146     0.0146     0.0001000 
   1   469   1     0     1     1  0.0147     0.0147     0.0001000 
   1   470   1     0     1     1  0.0148     0.0148     0.0001000 
   1   471   1     0     1     1  0.0149     0.0149     0.0001000 
   1   472   1     0     2     2  0.0150     0.0150     0.0001000 
   1   473   1     0     2     2  0.0151     0.0151     0.0001000 
   1   474   1     0     2     2  0.0152     0.0152     0.0001000 
   1   475   1     0     2     2  0.0153     0.0153     0.0001000 
   1   476   1     0     1     1  0.0154     0.0154     0.0001000 
   1   477   1     0     2     2  0.0155     0.0155     0.0001000 
   1   478   1     0     2     2  0.0156     0.0156     0.0001000 
   1   479   1     0     1     1  0.0157     0.0157     0.0001000 
   1   480   1     0     2     2  0.0158     0.0158     0.0001000 
   1   481   1     0     2     2  0.0159     0.0159     0.0001000 
   1   482   1     0     2     2  0.0160     0.0160     0.0001000 
   1   483   1     0     2     2  0.0161     0.0161     0.0001000 
   1   484   1     0     1     1  0.0162     0.0162     0.0001000 
   1   485   1     0     2     2  0.0163     0.0163     0.0001000 
   1   486   1     0     2     2  0.0164     0.0164     0.0001000 
   1   487   1     0     1     1  0.0165     0.0165     0.0001000 
   1   488   1     0     2     2  0.0166     0.0166     0.0001000 
   1   489   1     0     2     2  0.0167     0.0167     0.0001000 
   1   490   1     0     1     1  0.0168     0.0168     0.0001000 
   1   491   1     0     2     2  0.0169     0.0169     0.0001000 
   1   492   1     0     2     2  0.0170     0.0170     0.0001000 
   1   493   1     0     2     2  0.0171     0.0171     0.0001000 
   1   494   1     0     2     2  0.0172     0.0172     0.0001000 
   1   495   1     0     1     1  0.0173     0.0173     0.0001000 
   1   496   1     0     2     2  0.0174     0.0174     0.0001000 
   1   497   1     0     2     2  0.0175     0.0175     0.0001000 
   1   498   1     0     1     1  0.0176     0.0176     0.0001000 
   1   499   1     0     2     2  0.0177     0.0177     0.0001000 
   1   500   1     0     2     2  0.0178     0.0178     0.0001000 
   1   501   1     0     1     1  0.0179     0.0179     0.0001000 
   1   502   1     0     2     2  0.0180     0.0180     0.0001000 
   1   503   1     0     2     2  0.0181     0.0181     0.0001000 
   1   504   1     0     1     1  0.0182     0.0182     0.0001000 
   1   505   1     0     2     2  0.0183     0.0183     0.0001000 
   1   506   1     0     2     2  0.0184     0.0184     0.0001000 
   1   507   1     0     2     2  0.0185     0.0185     0.0001000 
   1   508   1     0     2     2  0.0186     0.0186     0.0001000 
   1   509   1     0     1     1  0.0187     0.0187     0.0001000 
   1   510   1     0     2     2  0.0188     0.0188     0.0001000 
   1   511   1     0     2     2  0.0189     0.0189     0.0001000 
   1   512   1     0     1     1  0.0190     0.0190     0.0001000 
   1   513   1     0     2     2  0.0191     0.0191     0.0001000 
   1   514   1     0     2     2  0.0192     0.0192     0.0001000 
   1   515   1     0     1     1  0.0193     0.0193     0.0001000 
   1   516   1     0     2     2  0.0194     0.0194     0.0001000 
   1   517   1     0     2     2  0.0195     0.0195     0.0001000 
   1   518   1     0     2     2  0.0196     0.0196     0.0001000 
   1   519   1     0     2     2  0.0197     0.0197     0.0001000 
   1   520   1     0     1     1  0.0198     0.0198     0.0001000 
   1   521   1     0     2     2  0.0199     0.0199     0.0001000 
   1   522   1     0     2     2  0.0200     0.0200     0.0001000 
   1   523   1     0     1     1  0.0201     0.0201     0.0001000 
   1   524   1     0     2     2  0.0202     0.0202     0.0001000 
   1   525   1     0     2     2  0.0203     0.0203     0.0001000 
   1   526   1     0     1     1  0.0204     0.0204     0.0001000 
   1   527   1     0     2     2  0.0205     0.0205     0.0001000 
   1   528   1     0     2     2  0.0206     0.0206     0.0001000 
   1   529   1     0     2     2  0.0207     0.0207     0.0001000 
   1   530   1     0     2     2  0.0208     0.0208     0.0001000 
   1   531   1     0     1     1  0.0209     0.0209     0.0001000 
   1   532   1     0     2     2  0.0210     0.0210     0.0001000 
   1   533   1     0     2     2  0.0211     0.0211     0.0001000 
   1   534   1     0     1     1  0.0212     0.0212     0.0001000 
   1   535   1     0     2     2  0.0213     0.0213     0.0001000 
   1   536   1     0     2     2  0.0214     0.0214     0.0001000 
   1   537   1     0     1     1  0.0215     0.0215     0.0001000 
   1   538   1     0     2     2  0.0216     0.0216     0.0001000 
   1   539   1     0     1     1  0.0217     0.0217     0.0001000 
   1   540   1     0     2     2  0.0218     0.0218     0.0001000 
   1   541   1     0     2     2  0.0219     0.0219     0.0001000 
   1   542   1     0     2     2  0.0220     0.0220     0.0001000 
   1   543   1     0     2     2  0.0221     0.0221     0.0001000 
   1   544   1     0     2     2  0.0222     0.0222     0.0001000 
   1   545   1     0     1     1  0.0223     0.0223     0.0001000 
   1   546   1     0     2     2  0.0224     0.0224     0.0001000 
   1   547   1     0     2     2  0.0225     0.0225     0.0001000 
   1   548   1     0     1     1  0.0226     0.0226     0.0001000 
   1   549   1     0     2     2  0.0227     0.0227     0.0001000 
   1   550   1     0     2     2  0.0228     0.0228     0.0001000 
   1   551   1     0     2     2  0.0229     0.0229     0.0001000 
   1   552   1     0     2     2  0.0230     0.0230     0.0001000 
   1   553   1     0     1     1  0.0231     0.0231     0.0001000 
   1   554   1     0     1     1  0.0232     0.0232     0.0001000 
   1   555   1     0     3     3  0.0233     0.0233     0.0001000 
   1   556   1     0     2     2  0.0234     0.0234     0.0001000 
   1   557   1     0     2     2  0.0235     0.0235     0.0001000 
   1   558   1     0     2     2  0.0236     0.0236     0.0001000 
   1   559   1     0     1     1  0.0237     0.0237     0.0001000 
   1   560   1     0     2     2  0.0238     0.0238     0.0001000 
   1   561   1     0     1     1  0.0239     0.0239     0.0001000 
   1   562   1     0     2     2  0.0240     0.0240     0.0001000 
   1   563   1     0     2     2  0.0241     0.0241     0.0001000 
   1   564   1     0     2     2  0.0242     0.0242     0.0001000 
   1   565   1     0     2     2  0.0243     0.0243     0.0001000 
   1   566   1     0     2     2  0.0244     0.0244     0.0001000 
   1   567   1     0     1     1  0.0245     0.0245     0.0001000 
   1   568   1     0     2     2  0.0246     0.0246     0.0001000 
   1   569   1     0     1     1  0.0247     0.0247     0.0001000 
   1   570   1     0     2     2  0.0248     0.0248     0.0001000 
   1   571   1     0     2     2  0.0249     0.0249     0.0001000 
   1   572   1     0     1     1  0.0250     0.0250     0.0001000 
   1   573   1     0     2     2  0.0251     0.0251     0.0001000 
   1   574   1     0     2     2  0.0252     0.0252     0.0001000 
   1   575   1     0     2     2  0.0253     0.0253     0.0001000 
   1   576   1     0     2     2  0.0254     0.0254     0.0001000 
   1   577   1     0     2     2  0.0255     0.0255     0.0001000 
   1   578   1     0     1     1  0.0256     0.0256     0.0001000 
   1   579   1     0     2     2  0.0257     0.0257     0.0001000 
   1   580   1     0     1     1  0.0258     0.0258     0.0001000 
   1   581   1     0     2     2  0.0259     0.0259     0.0001000 
   1   582   1     0     2     2  0.0260     0.0260     0.0001000 
   1   583   1     0     2     2  0.0261     0.0261     0.0001000 
   1   584   1     0     1     1  0.0262     0.0262     0.0001000 
   1   585   1     0     2     2  0.0263     0.0263     0.0001000 
   1   586   1     0     2     2  0.0264     0.0264     0.0001000 
   1   587   1     0     2     2  0.0265     0.0265     0.0001000 
   1   588   1     0     1     1  0.0266     0.0266     0.0001000 
   1   589   1     0     1     1  0.0267     0.0267     0.0001000 
   1   590   1     0     2     2  0.0268     0.0268     0.0001000 
   1   591   1     0     2     2  0.0269     0.0269     0.0001000 
   1   592   1     0     2     2  0.0270     0.0270     0.0001000 
   1   593   1     0     2     2  0.0271     0.0271     0.0001000 
   1   594   1     0     1     1  0.0272     0.0272     0.0001000 
   1   595   1     0     2     2  0.0273     0.0273     0.0001000 
   1   596   1     0     2     2  0.0274     0.0274     0.0001000 
   1   597   1     0     2     2  0.0275     0.0275     0.0001000 
   1   598   1     0     2     2  0.0276     0.0276     0.0001000 
   1   599   1     0     1     1  0.0277     0.0277     0.0001000 
   1   600   1     0     1     1  0.0278     0.0278     0.0001000 
   1   601   1     0     2     2  0.0279     0.0279     0.0001000 
   1   602   1     0     2     2  0.0280     0.0280     0.0001000 
   1   603   1     0     2     2  0.0281     0.0281     0.0001000 
   1   604   1     0     2     2  0.0282     0.0282     0.0001000 
   1   605   1     0     1     1  0.0283     0.0283     0.0001000 
   1   606   1     0     2     2  0.0284     0.0284     0.0001000 
   1   607   1     0     2     2  0.0285     0.0285     0.0001000 
   1   608   1     0     1     1  0.0286     0.0286     0.0001000 
   1   609   1     0     2     2  0.0287     0.0287     0.0001000 
   1   610   1     0     2     2  0.0288     0.0288     0.0001000 
   1   611   1     0     2     2  0.0289     0.0289     0.0001000 
   1   612   1     0     2     2  0.0290     0.0290     0.0001000 
   1   613   1     0     1     1  0.0291     0.0291     0.0001000 
   1   614   1     0     1     1  0.0292     0.0292     0.0001000 
   1   615   1     0     2     2  0.0293     0.0293     0.0001000 
   1   616   1     0     2     2  0.0294     0.0294     0.0001000 
   1   617   1     0     2     2  0.0295     0.0295     0.0001000 
   1   618   1     0     2     2  0.0296     0.0296     0.0001000 
   1   619   1     0     1     1  0.0297     0.0297     0.0001000 
   1   620   1     0     2     2  0.0298     0.0298     0.0001000 
   1   621   1     0     2     2  0.0299     0.0299     0.0001000 
   1   622   1     0     2     2  0.0300     0.0300     0.0001000 
   1   623   1     0     2     2  0.0301     0.0301     0.0001000 
   1   624   1     0     1     1  0.0302     0.0302     0.0001000 
   1   625   1     0     1     1  0.0303     0.0303     0.0001000 
   1   626   1     0     2     2  0.0304     0.0304     0.0001000 
   1   627   1     0     2     2  0.0305     0.0305     0.0001000 
   1   628   1     0     2     2  0.0306     0.0306     0.0001000 
   1   629   1     0     3     3  0.0307     0.0307     0.0001000 
   1   630   1     0     1     1  0.0308     0.0308     0.0001000 
   1   631   1     0     2     2  0.0309     0.0309     0.0001000 
   1   632   1     0     2     2  0.0310     0.0310     0.0001000 
   1   633   1     0     1     1  0.0311     0.0311     0.0001000 
   1   634   1     0     2     2  0.0312     0.0312     0.0001000 
   1   635   1     0     2     2  0.0313     0.0313     0.0001000 
   1   636   1     0     2     2  0.0314     0.0314     0.0001000 
   1   637   1     0     2     2  0.0315     0.0315     0.0001000 
   1   638   1     0     1     1  0.0316     0.0316     0.0001000 
   1   639   1     0     1     1  0.0317     0.0317     0.0001000 
   1   640   1     0     2     2  0.0318     0.0318     0.0001000 
   1   641   1     0     2     2  0.0319     0.0319     0.0001000 
   1   642   1     0     2     2  0.0320     0.0320     0.0001000 
   1   643   1     0     2     2  0.0321     0.0321     0.0001000 
   1   644   1     0     1     1  0.0322     0.0322     0.0001000 
   1   645   1     0     2     2  0.0323     0.0323     0.0001000 
   1   646   1     0     2     2  0.0324     0.0324     0.0001000 
   1   647   1     0     1     1  0.0325     0.0325     0.0001000 
   1   648   1     0     2     2  0.0326     0.0326     0.0001000 
   1   649   1     0     2     2  0.0327     0.0327     0.0001000 
   1   650   1     0     2     2  0.0328     0.0328     0.0001000 
   1   651   1     0     2     2  0.0329     0.0329     0.0001000 
   1   652   1     0     1     1  0.0330     0.0330     0.0001000 
   1   653   1     0     1     1  0.0331     0.0331     0.0001000 
   1   654   1     0     2     2  0.0332     0.0332     0.0001000 
   1   655   1     0     2     2  0.0333     0.0333     0.0001000 
   1   656   1     0     2     2  0.0334     0.0334     0.0001000 
   1   657   1     0     2     2  0.0335     0.0335     0.0001000 
   1   658   1     0     1     1  0.0336     0.0336     0.0001000 
   1   659   1     0     2     2  0.0337     0.0337     0.0001000 
   1   660   1     0     2     2  0.0338     0.0338     0.0001000 
   1   661   1     0     2     2  0.0339     0.0339     0.0001000 
   1   662   1     0     2     2  0.0340     0.0340     0.0001000 
   1   663   1     0     1     1  0.0341     0.0341     0.0001000 
   1   664   1     0     1     1  0.0342     0.0342     0.0001000 
   1   665   1     0     2     2  0.0343     0.0343     0.0001000 
   1   666   1     0     2     2  0.0344     0.0344     0.0001000 
   1   667   1     0     2     2  0.0345     0.0345     0.0001000 
   1   668   1     0     1     1  0.0346     0.0346     0.0001000 
   1   669   1     0     2     2  0.0347     0.0347     0.0001000 
   1   670   1     0     2     2  0.0348     0.0348     0.0001000 
   1   671   1     0     2     2  0.0349     0.0349     0.0001000 
   1   672   1     0     2     2  0.0350     0.0350     0.0001000 
   1   673   1     0     1     1  0.0351     0.0351     0.0001000 
   1   674   1     0     1     1  0.0352     0.0352     0.0001000 
   1   675   1     0     2     2  0.0353     0.0353     0.0001000 
   1   676   1     0     2     2  0.0354     0.0354     0.0001000 
   1   677   1     0     3     3  0.0355     0.0355     0.0001000 
   1   678   1     0     2     2  0.0356     0.0356     0.0001000 
   1   679   1     0     1     1  0.0357     0.0357     0.0001000 
   1   680   1     0     2     2  0.0358     0.0358     0.0001000 
   1   681   1     0     2     2  0.0359     0.0359     0.0001000 
   1   682   1     0     1     1  0.0360     0.0360     0.0001000 
   1   683   1     0     2     2  0.0361     0.0361     0.0001000 
   1   684   1     0     2     2  0.0362     0.0362     0.0001000 
   1   685   1     0     2     2  0.0363     0.0363     0.0001000 
   1   686   1     0     2     2  0.0364     0.0364     0.0001000 
   1   687   1     0     1     1  0.0365     0.0365     0.0001000 
   1   688   1     0     1     1  0.0366     0.0366     0.0001000 
   1   689   1     0     2     2  0.0367     0.0367     0.0001000 
   1   690   1     0     2     2  0.0368     0.0368     0.0001000 
   1   691   1     0     2     2  0.0369     0.0369     0.0001000 
   1   692   1     0     2     2  0.0370     0.0370     0.0001000 
   1   693   1     0     1     1  0.0371     0.0371     0.0001000 
   1   694   1     0     2     2  0.0372     0.0372     0.0001000 
   1   695   1     0     2     2  0.0373     0.0373     0.0001000 
   1   696   1     0     1     1  0.0374     0.0374     0.0001000 
   1   697   1     0     2     2  0.0375     0.0375     0.0001000 
   1   698   1     0     2     2  0.0376     0.0376     0.0001000 
   1   699   1     0     2     2  0.0377     0.0377     0.0001000 
   1   700   1     0     2     2  0.0378     0.0378     0.0001000 
   1   701   1     0     1     1  0.0379     0.0379     0.0001000 
   1   702   1     0     1     1  0.0380     0.0380     0.0001000 
   1   703   1     0     2     2  0.0381     0.0381     0.0001000 
   1   704   1     0     2     2  0.0382     0.0382     0.0001000 
   1   705   1     0     2     2  0.0383     0.0383     0.0001000 
   1   706   1     0     2     2  0.0384     0.0384     0.0001000 
   1   707   1     0     1     1  0.0385     0.0385     0.0001000 
   1   708   1     0     2     2  0.0386     0.0386     0.0001000 
   1   709   1     0     2     2  0.0387     0.0387     0.0001000 
   1   710   1     0     3     3  0.0388     0.0388     0.0001000 
   1   711   1     0     1     1  0.0389     0.0389     0.0001000 
   1   712   1     0     1     1  0.0390     0.0390     0.0001000 
   1   713   1     0     2     2  0.0391     0.0391     0.0001000 
   1   714   1     0     2     2  0.0392     0.0392     0.0001000 
   1   715   1     0     2     2  0.0393     0.0393     0.0001000 
   1   716   1     0     2     2  0.0394     0.0394     0.0001000 
   1   717   1     0     2     2  0.0395     0.0395     0.0001000 
   1   718   1     0     1     1  0.0396     0.0396     0.0001000 
   1   719   1     0     2     2  0.0397     0.0397     0.0001000 
   1   720   1     0     2     2  0.0398     0.0398     0.0001000 
   1   721   1     0     3     3  0.0399     0.0399     0.0001000 
   1   722   1     0     1     1  0.0400     0.0400     0.0001000 
   1   723   1     0     3     3  0.0401     0.0401     0.0001000 
   1   724   1     0     1     1  0.0402     0.0402     0.0001000 
   1   725   1     0     2     2  0.0403     0.0403     0.0001000 
   1   726   1     0     2     2  0.0404     0.0404     0.0001000 
   1   727   1     0     2     2  0.0405     0.0405     0.0001000 
   1   728   1     0     2     2  0.0406     0.0406     0.0001000 
   1   729   1     0     1     1  0.0407     0.0407     0.0001000 
   1   730   1     0     2     2  0.0408     0.0408     0.0001000 
   1   731   1     0     3     3  0.0409     0.0409     0.0001000 
   1   732   1     0     2     2  0.0410     0.0410     0.0001000 
   1   733   1     0     1     1  0.0411     0.0411     0.0001000 
   1   734   1     0     3     3  0.0412     0.0412     0.0001000 
   1   735   1     0     1     1  0.0413     0.0413     0.0001000 
   1   736   1     0     2     2  0.0414     0.0414     0.0001000 
   1   737   1     0     2     2  0.0415     0.0415     0.0001000 
   1   738   1     0     2     2  0.0416     0.0416     0.0001000 
   1   739   1     0     1     1  0.0417     0.0417     0.0001000 
   1   740   1     0     2     2  0.0418     0.0418     0.0001000 
   1   741   1     0     2     2  0.0419     0.0419     0.0001000 
   1   742   1     0     2     2  0.0420     0.0420     0.0001000 
   1   743   1     0     1     1  0.0421     0.0421     0.0001000 
   1   744   1     0     2     2  0.0422     0.0422     0.0001000 
   1   745   1     0     2     2  0.0423     0.0423     0.0001000 
   1   746   1     0     2     2  0.0424     0.0424     0.0001000 
   1   747   1     0     1     1  0.0425     0.0425     0.0001000 
   1   748   1     0     3     3  0.0426     0.0426     0.0001000 
   1   749   1     0     1     1  0.0427     0.0427     0.0001000 
   1   750   1     0     2     2  0.0428     0.0428     0.0001000 
   1   751   1     0     2     2  0.0429     0.0429     0.0001000 
   1   752   1     0     2     2  0.0430     0.0430     0.0001000 
   1   753   1     0     2     2  0.0431     0.0431     0.0001000 
   1   754   1     0     2     2  0.0432     0.0432     0.0001000 
   1   755   1     0     1     1  0.0433     0.0433     0.0001000 
   1   756   1     0     3     3  0.0434     0.0434     0.0001000 
   1   757   1     0     1     1  0.0435     0.0435     0.0001000 
   1   758   1     0     2     2  0.0436     0.0436     0.0001000 
   1   759   1     0     2     2  0.0437     0.0437     0.0001000 
   1   760   1     0     2     2  0.0438     0.0438     0.0001000 
   1   761   1     0     3     3  0.0439     0.0439     0.0001000 
   1   762   1     0     1     1  0.0440     0.0440     0.0001000 
   1   763   1     0     1     1  0.0441     0.0441     0.0001000 
   1   764   1     0     2     2  0.0442     0.0442     0.0001000 
   1   765   1     0     2     2  0.0443     0.0443     0.0001000 
   1   766   1     0     2     2  0.0444     0.0444     0.0001000 
   1   767   1     0     2     2  0.0445     0.0445     0.0001000 
   1   768   1     0     1     1  0.0446     0.0446     0.0001000 
   1   769   1     0     2     2  0.0447     0.0447     0.0001000 
   1   770   1     0     2     2  0.0448     0.0448     0.0001000 
   1   771   1     0     1     1  0.0449     0.0449     0.0001000 
   1   772   1     0     2     2  0.0450     0.0450     0.0001000 
   1   773   1     0     2     2  0.0451     0.0451     0.0001000 
   1   774   1     0     2     2  0.0452     0.0452     0.0001000 
   1   775   1     0     2     2  0.0453     0.0453     0.0001000 
   1   776   1     0     2     2  0.0454     0.0454     0.0001000 
   1   777   1     0     2     2  0.0455     0.0455     0.0001000 
   1   778   1     0     1     1  0.0456     0.0456     0.0001000 
   1   779   1     0     1     1  0.0457     0.0457     0.0001000 
   1   780   1     0     1     1  0.0458     0.0458     0.0001000 
   1   781   1     0     2     2  0.0459     0.0459     0.0001000 
   1   782   1     0     2     2  0.0460     0.0460     0.0001000 
   1   783   1     0     3     3  0.0461     0.0461     0.0001000 
   1   784   1     0     3     3  0.0462     0.0462     0.0001000 
   1   785   1     0     1     1  0.0463     0.0463     0.0001000 
   1   786   1     0     2     2  0.0464     0.0464     0.0001000 
   1   787   1     0     2     2  0.0465     0.0465     0.0001000 
   1   788   1     0     3     3  0.0466     0.0466     0.0001000 
   1   789   1     0     1     1  0.0467     0.0467     0.0001000 
   1   790   1     0     2     2  0.0468     0.0468     0.0001000 
   1   791   1     0     2     2  0.0469     0.0469     0.0001000 
   1   792   1     0     2     2  0.0470     0.0470     0.0001000 
   1   793   1     0     1     1  0.0471     0.0471     0.0001000 
   1   794   1     0     1     1  0.0472     0.0472     0.0001000 
   1   795   1     0     2     2  0.0473     0.0473     0.0001000 
   1   796   1     0     2     2  0.0474     0.0474     0.0001000 
   1   797   1     0     3     3  0.0475     0.0475     0.0001000 
   1   798   1     0     2     2  0.0476     0.0476     0.0001000 
   1   799   1     0     3     3  0.0477     0.0477     0.0001000 
   1   800   1     0     1     1  0.0478     0.0478     0.0001000 
   1   801   1     0     1     1  0.0479     0.0479     0.0001000 
   1   802   1     0     2     2  0.0480     0.0480     0.0001000 
   1   803   1     0     2     2  0.0481     0.0481     0.0001000 
   1   804   1     0     2     2  0.0482     0.0482     0.0001000 
   1   805   1     0     3     3  0.0483     0.0483     0.0001000 
   1   806   1     0     2     2  0.0484     0.0484     0.0001000 
   1   807   1     0     1     1  0.0485     0.0485     0.0001000 
   1   808   1     0     1     1  0.0486     0.0486     0.0001000 
   1   809   1     0     2     2  0.0487     0.0487     0.0001000 
   1   810   1     0     2     2  0.0488     0.0488     0.0001000 
   1   811   1     0     3     3  0.0489     0.0489     0.0001000 
   1   812   1     0     2     2  0.0490     0.0490     0.0001000 
   1   813   1     0     3     3  0.0491     0.0491     0.0001000 
   1   814   1     0     1     1  0.0492     0.0492     0.0001000 
   1   815   1     0     1     1  0.0493     0.0493     0.0001000 
   1   816   1     0     2     2  0.0494     0.0494     0.0001000 
   1   817   1     0     2     2  0.0495     0.0495     0.0001000 
   1   818   1     0     2     2  0.0496     0.0496     0.0001000 
   1   819   1     0     3     3  0.0497     0.0497     0.0001000 
   1   820   1     0     3     3  0.0498     0.0498     0.0001000 
   1   821   1     0     2     2  0.0499     0.0499     0.0001000 
   1   822   1     0     1     1  0.0500     0.0500     0.0001000 
   1   823   1     0     1     1  0.0501     0.0501     0.0001000 
   1   824   1     0     1     1  0.0502     0.0502     0.0001000 
   1   825   1     0     2     2  0.0503     0.0503     0.0001000 
   1   826   1     0     2     2  0.0504     0.0504     0.0001000 
   1   827   1     0     2     2  0.0505     0.0505     0.0001000 
   1   828   1     0     2     2  0.0506     0.0506     0.0001000 
   1   829   1     0     3     3  0.0507     0.0507     0.0001000 
   1   830   1     0     2     2  0.0508     0.0508     0.0001000 
   1   831   1     0     2     2  0.0509     0.0509     0.0001000 
   1   832   1     0     1     1  0.0510     0.0510     0.0001000 
   1   833   1     0     1     1  0.0511     0.0511     0.0001000 
   1   834   1     0     2     2  0.0512     0.0512     0.0001000 
   1   835   1     0     2     2  0.0513     0.0513     0.0001000 
   1   836   1     0     2     2  0.0514     0.0514     0.0001000 
   1   837   1     0     1     1  0.0515     0.0515     0.0001000 
   1   838   1     0     2     2  0.0516     0.0516     0.0001000 
   1   839   1     0     2     2  0.0517     0.0517     0.0001000 
   1   840   1     0     2     2  0.0518     0.0518     0.0001000 
   1   841   1     0     1     1  0.0519     0.0519     0.0001000 
   1   842   1     0     1     1  0.0520     0.0520     0.0001000 
   1   843   1     0     2     2  0.0521     0.0521     0.0001000 
   1   844   1     0     2     2  0.0522     0.0522     0.0001000 
   1   845   1     0     2     2  0.0523     0.0523     0.0001000 
   1   846   1U    0     3     3  0.0523     0.0523     0.0001000 
   1   846   2     0     2     2  0.0524     0.0524     8.447e-005
   1   847   1     0     1     1  0.0525     0.0525     8.447e-005
   1   848   1     0     1     1  0.0526     0.0526     8.447e-005
   1   849   1     0     2     2  0.0527     0.0527     8.447e-005
   1   850   1     0     2     2  0.0528     0.0528     8.447e-005
   1   851   1     0     2     2  0.0528     0.0528     8.447e-005
   1   852   1     0     3     3  0.0529     0.0529     8.447e-005
   1   853   1     0     2     2  0.0530     0.0530     8.447e-005
   1   854   1     0     1     1  0.0531     0.0531     8.447e-005
   1   855   1     0     1     1  0.0532     0.0532     8.447e-005
   1   856   1     0     1     1  0.0533     0.0533     8.447e-005
   1   857   1     0     2     2  0.0534     0.0534     8.447e-005
   1   858   1     0     2     2  0.0534     0.0534     8.447e-005
   1   859   1     0     2     2  0.0535     0.0535     8.447e-005
   1   860   1U    0     3     3  0.0535     0.0535     8.447e-005
   1   860   2     0     3     3  0.0536     0.0536     6.883e-005
   1   861   1     0     1     1  0.0537     0.0537     6.883e-005
   1   862   1     0     1     1  0.0537     0.0537     6.883e-005
   1   863   1     0     2     2  0.0538     0.0538     6.883e-005
   1   864   1     0     2     2  0.0539     0.0539     6.883e-005
   1   865   1     0     2     2  0.0539     0.0539     6.883e-005
   1   866   1     0     2     2  0.0540     0.0540     6.883e-005
   1   867   1     0     1     1  0.0541     0.0541     6.883e-005
   1   868   1     0     1     1  0.0541     0.0541     6.883e-005
   1   869   1     0     2     2  0.0542     0.0542     6.883e-005
   1   870   1     0     2     2  0.0543     0.0543     6.883e-005
   1   871   1U    0     2     2  0.0543     0.0543     6.883e-005
   1   871   2     0     1     1  0.0543     0.0543     5.723e-005
   1   872   1     0     1     1  0.0544     0.0544     5.723e-005
   1   873   1     0     2     2  0.0545     0.0545     5.723e-005
   1   874   1     0     2     2  0.0545     0.0545     5.723e-005
   1   875   1     0     2     2  0.0546     0.0546     5.723e-005
   1   876   1     0     2     2  0.0546     0.0546     5.723e-005
   1   877   1     0     2     2  0.0547     0.0547     5.723e-005
   1   878   1     0     2     2  0.0547     0.0547     5.723e-005
   1   879   1     0     1     1  0.0548     0.0548     5.723e-005
   1   880   1     0     1     1  0.0549     0.0549     5.723e-005
   1   881   1     0     1     1  0.0549     0.0549     5.723e-005
   1   882   1     0     2     2  0.0550     0.0550     5.723e-005
   1   883   1U    0     2     2  0.0550     0.0550     5.723e-005
   1   883   2     0     1     1  0.0550     0.0550     4.810e-005
   1   884   1     0     2     2  0.0551     0.0551     4.810e-005
   1   885   1     0     2     2  0.0551     0.0551     4.810e-005
   1   886   1     0     1     1  0.0552     0.0552     4.810e-005
   1   887   1     0     2     2  0.0552     0.0552     4.810e-005
   1   888   1     0     2     2  0.0553     0.0553     4.810e-005
   1   889   1     0     1     1  0.0553     0.0553     4.810e-005
   1   890   1U    0     2     2  0.0553     0.0553     4.810e-005
   1   890   2     0     1     1  0.0553     0.0553     4.072e-005
   1   891   1     0     1     1  0.0554     0.0554     4.072e-005
   1   892   1     0     2     2  0.0554     0.0554     4.072e-005
   1   893   1     0     2     2  0.0555     0.0555     4.072e-005
   1   894   1U    0     2     2  0.0555     0.0555     4.072e-005
   1   894   2     0     2     2  0.0555     0.0555     3.395e-005
   1   895   1     0     1     1  0.0555     0.0555     3.395e-005
   1   896   1     0     1     1  0.0556     0.0556     3.395e-005
   1   897   1     0     1     1  0.0556     0.0556     3.395e-005
   1   898   1     0     2     2  0.0556     0.0556     3.395e-005
   1   899   1U    0     2     2  0.0556     0.0556     3.395e-005
   1   899   2     0     1     1  0.0557     0.0557     2.811e-005
   1   900   1     0     2     2  0.0557     0.0557     2.811e-005
   1   901   1     0     2     2  0.0557     0.0557     2.811e-005
   1   902   1     0     2     2  0.0557     0.0557     2.811e-005
   1   903   1U    0     1     1  0.0557     0.0557     2.811e-005
   1   903   2     0     1     1  0.0558     0.0558     2.366e-005
   1   904   1     0     1     1  0.0558     0.0558     2.366e-005
   1   905   1     0     1     1  0.0558     0.0558     2.366e-005
   1   906   1     0     1     1  0.0558     0.0558     2.366e-005
   1   907   1     0     2     2  0.0559     0.0559     2.366e-005
   1   908   1U    0     2     2  0.0559     0.0559     2.366e-005
   1   908   2     0     1     1  0.0559     0.0559     1.930e-005
   1   909   1     0     1     1  0.0559     0.0559     1.930e-005
   1   910   1     0     1     1  0.0559     0.0559     1.930e-005
   1   911   1     0     2     2  0.0559     0.0559     1.930e-005
   1   912   1U    0     2     2  0.0559     0.0559     1.930e-005
   1   912   2     0     1     1  0.0560     0.0560     1.492e-005
   1   913   1     0     1     1  0.0560     0.0560     1.492e-005
   1   914   1     0     1     1  0.0560     0.0560     1.492e-005
   1   915   1U    0     2     2  0.0560     0.0560     1.492e-005
   1   915   2     0     1     1  0.0560     0.0560     1.248e-005
   1   916   1     0     1     1  0.0560     0.0560     1.248e-005
   1   917   1U    0     2     2  0.0560     0.0560     1.248e-005
   1   917   2     0     1     1  0.0560     0.0560     1.055e-005
   1   918   1     0     1     1  0.0560     0.0560     1.055e-005
   1   919   1U    0     2     2  0.0560     0.0560     1.055e-005
   1   919   2     0     1     1  0.0560     0.0560     8.632e-006
   1   920   1     0     2     2  0.0561     0.0561     8.632e-006
   1   921   1U    0     2     2  0.0561     0.0561     8.632e-006
   1   921   2     0     1     1  0.0561     0.0561     6.997e-006
   1   922   1     0     2     2  0.0561     0.0561     6.997e-006
   1   923   1U    0     2     2  0.0561     0.0561     6.997e-006
   1   923   2     0     1     1  0.0561     0.0561     5.907e-006
   1   924   1     0     2     2  0.0561     0.0561     5.907e-006
   1   925   1     0     2     2  0.0561     0.0561     5.907e-006
   1   926   1U    0     2     2  0.0561     0.0561     5.907e-006
   1   926   2     0     2     2  0.0561     0.0561     4.567e-006
   1   927   1     0     2     2  0.0561     0.0561     4.567e-006
   1   928   1     0     2     2  0.0561     0.0561     4.567e-006
   1   929   1     0     2     2  0.0561     0.0561     4.567e-006
   1   930   1U    0     2     2  0.0561     0.0561     4.567e-006
   1   930   2     0     2     2  0.0561     0.0561     3.769e-006
   1   931   1     0     2     2  0.0561     0.0561     3.769e-006
   1   932   1     0     2     2  0.0561     0.0561     3.769e-006
   1   933   1     0     2     2  0.0561     0.0561     3.769e-006
   1   934   1     0     2     2  0.0561     0.0561     3.769e-006
   1   935   1     0     2     2  0.0561     0.0561     3.769e-006
   1   936   1     0     2     2  0.0561     0.0561     3.769e-006
   1   937   1     0     2     2  0.0561     0.0561     3.769e-006
   1   938   1     0     2     2  0.0561     0.0561     3.769e-006
   1   939   1     0     2     2  0.0561     0.0561     3.769e-006
   1   940   1     0     2     2  0.0561     0.0561     3.769e-006
   1   941   1     0     2     2  0.0561     0.0561     3.769e-006
   1   942   1     0     2     2  0.0562     0.0562     4.296e-006
   1   943   1     0     2     2  0.0562     0.0562     4.296e-006
   1   944   1     0     2     2  0.0562     0.0562     4.296e-006
   1   945   1     0     2     2  0.0562     0.0562     4.296e-006
   1   946   1     0     2     2  0.0562     0.0562     4.296e-006
   1   947   1     0     2     2  0.0562     0.0562     4.992e-006
   1   948   1     0     2     2  0.0562     0.0562     4.992e-006
   1   949   1     0     2     2  0.0562     0.0562     4.992e-006
   1   950   1     0     2     2  0.0562     0.0562     4.992e-006
   1   951   1     0     2     2  0.0562     0.0562     5.994e-006
   1   952   1     0     2     2  0.0562     0.0562     5.994e-006
   1   953   1     0     2     2  0.0562     0.0562     5.994e-006
   1   954   1     0     2     2  0.0562     0.0562     5.994e-006
   1   955   1     0     2     2  0.0562     0.0562     7.492e-006
   1   956   1     0     1     1  0.0562     0.0562     7.492e-006
   1   957   1     0     2     2  0.0562     0.0562     7.492e-006
   1   958   1     0     2     2  0.0562     0.0562     7.492e-006
   1   959   1     0     1     1  0.0563     0.0563     9.365e-006
   1   960   1     0     1     1  0.0563     0.0563     9.365e-006
   1   961   1     0     1     1  0.0563     0.0563     1.137e-005
   1   962   1     0     2     2  0.0563     0.0563     1.137e-005
   1   963   1     0     1     1  0.0563     0.0563     1.137e-005
   1   964   1     0     1     1  0.0563     0.0563     1.137e-005
   1   965   1     0     1     1  0.0563     0.0563     1.421e-005
   1   966   1     0     2     2  0.0563     0.0563     1.776e-005
   1   967   1     0     1     1  0.0564     0.0564     1.776e-005
   1   968   1     0     1     1  0.0564     0.0564     1.776e-005
   1   969   1     0     2     2  0.0564     0.0564     1.776e-005
   1   970   1     0     2     2  0.0564     0.0564     2.220e-005
   1   971   1     0     2     2  0.0564     0.0564     2.775e-005
   1   972   1     0     2     2  0.0565     0.0565     3.032e-005
   1   973   1     0     2     2  0.0565     0.0565     3.032e-005
   1   974   1     0     2     2  0.0565     0.0565     3.032e-005
   1   975   1     0     2     2  0.0566     0.0566     3.790e-005
   1   976   1     0     2     2  0.0566     0.0566     4.738e-005
   1   977   1     0     2     2  0.0567     0.0567     5.922e-005
   1   978   1     0     2     2  0.0568     0.0568     7.402e-005
   1   979   1     0     2     2  0.0568     0.0568     7.402e-005
   1   980   1     0     2     2  0.0569     0.0569     9.253e-005
   1   981   1     0     2     2  0.0570     0.0570     0.0001000 
   1   982   1     0     2     2  0.0571     0.0571     0.0001000 
   1   983   1     0     2     2  0.0572     0.0572     0.0001000 
   1   984   1     0     2     2  0.0573     0.0573     0.0001000 
   1   985   1     0     2     2  0.0574     0.0574     0.0001000 
   1   986   1     0     2     2  0.0575     0.0575     0.0001000 
   1   987   1     0     2     2  0.0576     0.0576     0.0001000 
   1   988   1     0     2     2  0.0577     0.0577     0.0001000 
   1   989   1     0     2     2  0.0578     0.0578     0.0001000 
   1   990   1     0     2     2  0.0579     0.0579     0.0001000 
   1   991   1     0     2     2  0.0580     0.0580     0.0001000 
   1   992   1     0     2     2  0.0581     0.0581     0.0001000 
   1   993   1     0     2     2  0.0582     0.0582     0.0001000 
   1   994   1     0     2     2  0.0583     0.0583     0.0001000 
   1   995   1     0     2     2  0.0584     0.0584     0.0001000 
   1   996   1     0     2     2  0.0585     0.0585     0.0001000 
   1   997   1     0     2     2  0.0586     0.0586     0.0001000 
   1   998   1     0     2     2  0.0587     0.0587     0.0001000 
   1   999   1     0     1     1  0.0588     0.0588     0.0001000 
   1  1000   1     0     2     2  0.0589     0.0589     0.0001000 
   1  1001   1     0     2     2  0.0590     0.0590     0.0001000 
   1  1002   1     0     2     2  0.0591     0.0591     0.0001000 
   1  1003   1     0     2     2  0.0592     0.0592     0.0001000 
   1  1004   1     0     2     2  0.0593     0.0593     0.0001000 
   1  1005   1     0     2     2  0.0594     0.0594     0.0001000 
   1  1006   1     0     1     1  0.0595     0.0595     0.0001000 
   1  1007   1     0     1     1  0.0596     0.0596     0.0001000 
   1  1008   1     0     1     1  0.0597     0.0597     0.0001000 
   1  1009   1     0     2     2  0.0598     0.0598     0.0001000 
   1  1010   1     0     1     1  0.0599     0.0599     0.0001000 
   1  1011   1     0     2     2  0.0600     0.0600     0.0001000 
   1  1012   1     0     2     2  0.0601     0.0601     0.0001000 
   1  1013   1     0     1     1  0.0602     0.0602     0.0001000 
   1  1014   1     0     2     2  0.0603     0.0603     0.0001000 
   1  1015   1     0     2     2  0.0604     0.0604     0.0001000 
   1  1016   1     0     1     1  0.0605     0.0605     0.0001000 
   1  1017   1     0     2     2  0.0606     0.0606     0.0001000 
   1  1018   1     0     1     1  0.0607     0.0607     0.0001000 
   1  1019   1     0     1     1  0.0608     0.0608     0.0001000 
   1  1020   1     0     2     2  0.0609     0.0609     0.0001000 
   1  1021   1     0     1     1  0.0610     0.0610     0.0001000 
   1  1022   1     0     2     2  0.0611     0.0611     0.0001000 
   1  1023   1     0     2     2  0.0612     0.0612     0.0001000 
   1  1024   1     0     2     2  0.0613     0.0613     0.0001000 
   1  1025   1     0     1     1  0.0614     0.0614     0.0001000 
   1  1026   1     0     1     1  0.0615     0.0615     0.0001000 
   1  1027   1     0     1     1  0.0616     0.0616     0.0001000 
   1  1028   1     0     1     1  0.0617     0.0617     0.0001000 
   1  1029   1     0     1     1  0.0618     0.0618     0.0001000 
   1  1030   1     0     1     1  0.0619     0.0619     0.0001000 
   1  1031   1     0     2     2  0.0620     0.0620     0.0001000 
   1  1032   1     0     1     1  0.0621     0.0621     0.0001000 
   1  1033   1     0     2     2  0.0622     0.0622     0.0001000 
   1  1034   1     0     1     1  0.0623     0.0623     0.0001000 
   1  1035   1     0     1     1  0.0624     0.0624     0.0001000 
   1  1036   1     0     1     1  0.0625     0.0625     0.0001000 
   1  1037   1     0     1     1  0.0626     0.0626     0.0001000 
   1  1038   1     0     1     1  0.0627     0.0627     0.0001000 
   1  1039   1     0     1     1  0.0628     0.0628     0.0001000 
   1  1040   1     0     1     1  0.0629     0.0629     0.0001000 
   1  1041   1     0     1     1  0.0630     0.0630     0.0001000 
   1  1042   1     0     1     1  0.0631     0.0631     0.0001000 
   1  1043   1     0     1     1  0.0632     0.0632     0.0001000 
   1  1044   1     0     3     3  0.0633     0.0633     0.0001000 
   1  1045   1     0     1     1  0.0634     0.0634     0.0001000 
   1  1046   1     0     1     1  0.0635     0.0635     0.0001000 
   1  1047   1     0     1     1  0.0636     0.0636     0.0001000 
   1  1048   1     0     3     3  0.0637     0.0637     0.0001000 
   1  1049   1     0     1     1  0.0638     0.0638     0.0001000 
   1  1050   1     0     1     1  0.0639     0.0639     0.0001000 
   1  1051   1     0     3     3  0.0640     0.0640     0.0001000 
   1  1052   1     0     3     3  0.0641     0.0641     0.0001000 
   1  1053   1     0     1     1  0.0642     0.0642     0.0001000 
   1  1054   1     0     3     3  0.0643     0.0643     0.0001000 
   1  1055   1     0     1     1  0.0644     0.0644     0.0001000 
   1  1056   1     0     1     1  0.0645     0.0645     0.0001000 
   1  1057   1     0     1     1  0.0646     0.0646     0.0001000 
   1  1058   1     0     2     2  0.0647     0.0647     0.0001000 
   1  1059   1     0     2     2  0.0648     0.0648     0.0001000 
   1  1060   1     0     3     3  0.0649     0.0649     0.0001000 
   1  1061   1     0     2     2  0.0650     0.0650     0.0001000 
   1  1062   1     0     1     1  0.0651     0.0651     0.0001000 
   1  1063   1     0     1     1  0.0652     0.0652     0.0001000 
   1  1064   1     0     1     1  0.0653     0.0653     0.0001000 
   1  1065   1     0     1     1  0.0654     0.0654     0.0001000 
   1  1066   1     0     1     1  0.0655     0.0655     0.0001000 
   1  1067   1     0     1     1  0.0656     0.0656     0.0001000 
   1  1068   1     0     1     1  0.0657     0.0657     0.0001000 
   1  1069   1     0     1     1  0.0658     0.0658     0.0001000 
   1  1070   1     0     1     1  0.0659     0.0659     0.0001000 
   1  1071   1     0     2     2  0.0660     0.0660     0.0001000 
   1  1072   1     0     2     2  0.0661     0.0661     0.0001000 
   1  1073   1     0     3     3  0.0662     0.0662     0.0001000 
   1  1074   1     0     3     3  0.0663     0.0663     0.0001000 
   1  1075   1     0     3     3  0.0664     0.0664     0.0001000 
   1  1076   1     0     2     2  0.0665     0.0665     0.0001000 
   1  1077   1     0     3     3  0.0666     0.0666     0.0001000 
   1  1078   1     0     2     2  0.0667     0.0667     0.0001000 
   1  1079   1     0     2     2  0.0668     0.0668     0.0001000 
   1  1080   1     0     3     3  0.0669     0.0669     0.0001000 
   1  1081   1     0     2     2  0.0670     0.0670     0.0001000 
   1  1082   1     0     3     3  0.0671     0.0671     0.0001000 
   1  1083   1     0     2     2  0.0672     0.0672     0.0001000 
   1  1084   1     0     3     3  0.0673     0.0673     0.0001000 
   1  1085   1     0     3     3  0.0674     0.0674     0.0001000 
   1  1086   1     0     2     2  0.0675     0.0675     0.0001000 
   1  1087   1     0     3     3  0.0676     0.0676     0.0001000 
   1  1088   1     0     2     2  0.0677     0.0677     0.0001000 
   1  1089   1     0     3     3  0.0678     0.0678     0.0001000 
   1  1090   1     0     2     2  0.0679     0.0679     0.0001000 
   1  1091   1     0     3     3  0.0680     0.0680     0.0001000 
   1  1092   1     0     2     2  0.0681     0.0681     0.0001000 
   1  1093   1     0     2     2  0.0682     0.0682     0.0001000 
   1  1094   1     0     4     4  0.0683     0.0683     0.0001000 
   1  1095   1     0     2     2  0.0684     0.0684     0.0001000 
   1  1096   1     0     3     3  0.0685     0.0685     0.0001000 
   1  1097   1     0     3     3  0.0686     0.0686     0.0001000 
   1  1098   1     0     3     3  0.0687     0.0687     0.0001000 
   1  1099   1     0     1     1  0.0688     0.0688     0.0001000 
   1  1100   1     0     1     1  0.0689     0.0689     0.0001000 
   1  1101   1     0     1     1  0.0690     0.0690     0.0001000 
   1  1102   1     0     1     1  0.0691     0.0691     0.0001000 
   1  1103   1     0     1     1  0.0692     0.0692     0.0001000 
   1  1104   1     0     1     1  0.0693     0.0693     0.0001000 
   1  1105   1     0     1     1  0.0694     0.0694     0.0001000 
   1  1106   1     0     1     1  0.0695     0.0695     0.0001000 
   1  1107   1     0     1     1  0.0696     0.0696     0.0001000 
   1  1108   1     0     1     1  0.0697     0.0697     0.0001000 
   1  1109   1     0     1     1  0.0698     0.0698     0.0001000 
   1  1110   1     0     1     1  0.0699     0.0699     0.0001000 
   1  1111   1     0     1     1  0.0700     0.0700     0.0001000 
   1  1112   1     0     1     1  0.0701     0.0701     0.0001000 
   1  1113   1     0     2     2  0.0702     0.0702     0.0001000 
   1  1114   1     0     2     2  0.0703     0.0703     0.0001000 
   1  1115   1     0     3     3  0.0704     0.0704     0.0001000 
   1  1116   1     0     3     3  0.0705     0.0705     0.0001000 
   1  1117   1     0     2     2  0.0706     0.0706     0.0001000 
   1  1118   1     0     2     2  0.0707     0.0707     0.0001000 
   1  1119   1     0     2     2  0.0708     0.0708     0.0001000 
   1  1120   1     0     2     2  0.0709     0.0709     0.0001000 
   1  1121   1     0     2     2  0.0710     0.0710     0.0001000 
   1  1122   1     0     3     3  0.0711     0.0711     0.0001000 
   1  1123   1     0     2     2  0.0712     0.0712     0.0001000 
   1  1124   1     0     2     2  0.0713     0.0713     0.0001000 
   1  1125   1     0     3     3  0.0714     0.0714     0.0001000 
   1  1126   1     0     3     3  0.0715     0.0715     0.0001000 
   1  1127   1     0     3     3  0.0716     0.0716     0.0001000 
   1  1128   1     0     3     3  0.0717     0.0717     0.0001000 
   1  1129   1     0     2     2  0.0718     0.0718     0.0001000 
   1  1130   1     0     2     2  0.0719     0.0719     0.0001000 
   1  1131   1     0     3     3  0.0720     0.0720     0.0001000 
   1  1132   1     0     3     3  0.0721     0.0721     0.0001000 
   1  1133   1     0     2     2  0.0722     0.0722     0.0001000 
   1  1134   1     0     1     1  0.0723     0.0723     0.0001000 
   1  1135   1     0     1     1  0.0724     0.0724     0.0001000 
   1  1136   1     0     1     1  0.0725     0.0725     0.0001000 
   1  1137   1     0     1     1  0.0726     0.0726     0.0001000 
   1  1138   1     0     1     1  0.0727     0.0727     0.0001000 
   1  1139   1     0     1     1  0.0728     0.0728     0.0001000 
   1  1140   1     0     1     1  0.0729     0.0729     0.0001000 
   1  1141   1     0     1     1  0.0730     0.0730     0.0001000 
   1  1142   1     0     1     1  0.0731     0.0731     0.0001000 
   1  1143   1     0     1     1  0.0732     0.0732     0.0001000 
   1  1144   1     0     2     2  0.0733     0.0733     0.0001000 
   1  1145   1     0     2     2  0.0734     0.0734     0.0001000 
   1  1146   1     0     3     3  0.0735     0.0735     0.0001000 
   1  1147   1     0     3     3  0.0736     0.0736     0.0001000 
   1  1148   1     0     2     2  0.0737     0.0737     0.0001000 
   1  1149   1     0     2     2  0.0738     0.0738     0.0001000 
   1  1150   1     0     1     1  0.0739     0.0739     0.0001000 
   1  1151   1     0     1     1  0.0740     0.0740     0.0001000 
   1  1152   1     0     2     2  0.0741     0.0741     0.0001000 
   1  1153   1     0     2     2  0.0742     0.0742     0.0001000 
   1  1154   1     0     2     2  0.0743     0.0743     0.0001000 
   1  1155   1     0     2     2  0.0744     0.0744     0.0001000 
   1  1156   1     0     2     2  0.0745     0.0745     0.0001000 
   1  1157   1     0     3     3  0.0746     0.0746     0.0001000 
   1  1158   1     0     2     2  0.0747     0.0747     0.0001000 
   1  1159   1     0     1     1  0.0748     0.0748     0.0001000 
   1  1160   1     0     1     1  0.0749     0.0749     0.0001000 
   1  1161   1     0     1     1  0.0750     0.0750     0.0001000 
   1  1162   1     0     2     2  0.0751     0.0751     0.0001000 
   1  1163   1     0     2     2  0.0752     0.0752     0.0001000 
   1  1164   1     0     2     2  0.0753     0.0753     0.0001000 
   1  1165   1     0     2     2  0.0754     0.0754     0.0001000 
   1  1166   1     0     2     2  0.0755     0.0755     0.0001000 
   1  1167   1     0     1     1  0.0756     0.0756     0.0001000 
   1  1168   1     0     2     2  0.0757     0.0757     0.0001000 
   1  1169   1     0     2     2  0.0758     0.0758     0.0001000 
   1  1170   1     0     3     3  0.0759     0.0759     0.0001000 
   1  1171   1     0     1     1  0.0760     0.0760     0.0001000 
   1  1172   1     0     2     2  0.0761     0.0761     0.0001000 
   1  1173   1     0     2     2  0.0762     0.0762     0.0001000 
   1  1174   1     0     3     3  0.0763     0.0763     0.0001000 
   1  1175   1     0     2     2  0.0764     0.0764     0.0001000 
   1  1176   1     0     1     1  0.0765     0.0765     0.0001000 
   1  1177   1     0     1     1  0.0766     0.0766     0.0001000 
   1  1178   1     0     1     1  0.0767     0.0767     0.0001000 
   1  1179   1     0     2     2  0.0768     0.0768     0.0001000 
   1  1180   1     0     2     2  0.0769     0.0769     0.0001000 
   1  1181   1     0     2     2  0.0770     0.0770     0.0001000 
   1  1182   1U    0     3     3  0.0770     0.0770     0.0001000 
   1  1182   2     0     1     1  0.0771     0.0771     8.232e-005
   1  1183   1     0     1     1  0.0772     0.0772     8.232e-005
   1  1184   1     0     2     2  0.0773     0.0773     8.232e-005
   1  1185   1     0     2     2  0.0773     0.0773     8.232e-005
   1  1186   1     0     3     3  0.0774     0.0774     8.232e-005
   1  1187   1     0     2     2  0.0775     0.0775     8.232e-005
   1  1188   1     0     2     2  0.0776     0.0776     8.232e-005
   1  1189   1     0     3     3  0.0777     0.0777     8.232e-005
   1  1190   1     0     1     1  0.0778     0.0778     8.232e-005
   1  1191   1     0     1     1  0.0778     0.0778     8.232e-005
   1  1192   1     0     1     1  0.0779     0.0779     8.232e-005
   1  1193   1     0     2     2  0.0780     0.0780     8.232e-005
   1  1194   1     0     2     2  0.0781     0.0781     8.232e-005
   1  1195   1     0     2     2  0.0782     0.0782     8.232e-005
   1  1196   1U    0     3     3  0.0782     0.0782     8.232e-005
   1  1196   2     0     3     3  0.0782     0.0782     6.800e-005
   1  1197   1     0     1     1  0.0783     0.0783     6.800e-005
   1  1198   1     0     1     1  0.0784     0.0784     6.800e-005
   1  1199   1     0     1     1  0.0784     0.0784     6.800e-005
   1  1200   1     0     2     2  0.0785     0.0785     6.800e-005
   1  1201   1     0     2     2  0.0786     0.0786     6.800e-005
   1  1202   1     0     2     2  0.0786     0.0786     6.800e-005
   1  1203   1U    0     2     2  0.0786     0.0786     6.800e-005
   1  1203   2     0     1     1  0.0787     0.0787     5.565e-005
   1  1204   1     0     2     2  0.0788     0.0788     5.565e-005
   1  1205   1     0     1     1  0.0788     0.0788     5.565e-005
   1  1206   1     0     1     1  0.0789     0.0789     5.565e-005
   1  1207   1     0     2     2  0.0789     0.0789     5.565e-005
   1  1208   1     0     2     2  0.0790     0.0790     5.565e-005
   1  1209   1U    0     2     2  0.0790     0.0790     5.565e-005
   1  1209   2     0     1     1  0.0790     0.0790     4.727e-005
   1  1210   1     0     1     1  0.0791     0.0791     4.727e-005
   1  1211   1     0     2     2  0.0791     0.0791     4.727e-005
   1  1212   1     0     2     2  0.0792     0.0792     4.727e-005
   1  1213   1     0     3     3  0.0792     0.0792     4.727e-005
   1  1214   1U    0     3     3  0.0792     0.0792     4.727e-005
   1  1214   2     0     3     3  0.0793     0.0793     3.999e-005
   1  1215   1     0     2     2  0.0793     0.0793     3.999e-005
   1  1216   1     0     2     2  0.0793     0.0793     3.999e-005
   1  1217   1     0     1     1  0.0794     0.0794     3.999e-005
   1  1218   1     0     1     1  0.0794     0.0794     3.999e-005
   1  1219   1     0     1     1  0.0795     0.0795     3.999e-005
   1  1220   1     0     1     1  0.0795     0.0795     3.999e-005
   1  1221   1     0     2     2  0.0795     0.0795     3.999e-005
   1  1222   1U    0     2     2  0.0795     0.0795     3.999e-005
   1  1222   2     0     1     1  0.0796     0.0796     3.377e-005
   1  1223   1     0     1     1  0.0796     0.0796     3.377e-005
   1  1224   1     0     2     2  0.0796     0.0796     3.377e-005
   1  1225   1     0     2     2  0.0797     0.0797     3.377e-005
   1  1226   1U    0     2     2  0.0797     0.0797     3.377e-005
   1  1226   2     0     1     1  0.0797     0.0797     2.741e-005
   1  1227   1     0     1     1  0.0797     0.0797     2.741e-005
   1  1228   1     0     1     1  0.0798     0.0798     2.741e-005
   1  1229   1     0     2     2  0.0798     0.0798     2.741e-005
   1  1230   1U    0     2     2  0.0798     0.0798     2.741e-005
   1  1230   2     0     1     1  0.0798     0.0798     2.270e-005
   1  1231   1     0     1     1  0.0798     0.0798     2.270e-005
   1  1232   1     0     2     2  0.0799     0.0799     2.270e-005
   1  1233   1U    0     2     2  0.0799     0.0799     2.270e-005
   1  1233   2     0     1     1  0.0799     0.0799     1.898e-005
   1  1234   1     0     1     1  0.0799     0.0799     1.898e-005
   1  1235   1     0     1     1  0.0799     0.0799     1.898e-005
   1  1236   1U    0     2     2  0.0799     0.0799     1.898e-005
   1  1236   2     0     1     1  0.0799     0.0799     1.562e-005
   1  1237   1     0     1     1  0.0799     0.0799     1.562e-005
   1  1238   1U    0     2     2  0.0799     0.0799     1.562e-005
   1  1238   2     0     1     1  0.0800     0.0800     1.313e-005
   1  1239   1     0     1     1  0.0800     0.0800     1.313e-005
   1  1240   1U    0     2     2  0.0800     0.0800     1.313e-005
   1  1240   2     0     1     1  0.0800     0.0800     1.067e-005
   1  1241   1     0     1     1  0.0800     0.0800     1.067e-005
   1  1242   1U    0     2     2  0.0800     0.0800     1.067e-005
   1  1242   2     0     1     1  0.0800     0.0800     8.520e-006
   1  1243   1     0     1     1  0.0800     0.0800     5.216e-006
                          
 THE ANALYSIS HAS COMPLETED SUCCESSFULLY
