1

   Abaqus 6.13-1                                  Date 18-Feb-2016   Time 10:19:59
   For use by  under license from Dassault Systemes or its subsidiary.

                                                                                 
                                                                                 
 STEP    1     INCREMENT     1     STEP TIME    0.00    


                        S T E P       1     D Y N A M I C   A N A L Y S I S - I M P L I C I T  I N T E G R A T I O N


                                                                                          

          DYNAMIC APPLICATION PACKED SCHEME IS                 TRANSIENT FIDELITY  
          HILBER-HUGHES-TAYLOR (HHT) TIME INTEGRATOR IS USED

     AUTOMATIC TIME CONTROL WITH -
          A SUGGESTED INITIAL TIME INCREMENT OF                1.000E-13
          AND A TOTAL TIME PERIOD OF                           8.000E-02
          THE MINIMUM TIME INCREMENT ALLOWED IS                1.000E-13
          THE MAXIMUM TIME INCREMENT ALLOWED IS                1.000E-04
          SCALE FACTOR ON TIME AVERAGE FORCE FOR HALF-
           -INCREMENT RESIDUAL COMPUTATIONS IS                 1.000E+03

          HILBER-HUGHES-TAYLOR METHOD PARAMETERS:  ALPHA   IS  -5.000000E-02
                                                   BETA    IS   0.275625    
                                                   GAMMA   IS   0.550000    
          SINGULAR MASS TREATMENT TYPE IS                     ERROR
          CONSERVATIVE TIME INCREMENTATION IS USED
          STEP AMPLITUDE IS                                    STEP

 CONVERGENCE TOLERANCE PARAMETERS FOR FORCE    
     CRITERION FOR RESIDUAL FORCE     FOR A NONLINEAR PROBLEM          5.000E-03
     CRITERION FOR DISP.    CORRECTION IN A NONLINEAR PROBLEM          1.000E-02
     INITIAL VALUE OF TIME AVERAGE FORCE                               1.000E-02
     AVERAGE FORCE     IS TIME AVERAGE FORCE    
     ALTERNATE CRIT. FOR RESIDUAL FORCE     FOR A NONLINEAR PROBLEM    2.000E-02
     CRITERION FOR ZERO FORCE     RELATIVE TO TIME AVRG. FORCE         1.000E-05
     CRITERION FOR RESIDUAL FORCE     WHEN THERE IS ZERO FLUX          1.000E-05
     CRITERION FOR DISP.    CORRECTION WHEN THERE IS ZERO FLUX         1.000E-03
     CRITERION FOR RESIDUAL FORCE     FOR A LINEAR INCREMENT           1.000E-08
     FIELD CONVERSION RATIO                                             1.00    
     CRITERION FOR ZERO FORCE     REL. TO TIME AVRG. MAX. FORCE        1.000E-05
     CRITERION FOR ZERO DISP.    RELATIVE TO CHARACTERISTIC LENGTH     1.000E-08

 CONVERGENCE TOLERANCE PARAMETERS FOR CHARGE   
     CRITERION FOR RESIDUAL CHARGE    FOR A NONLINEAR PROBLEM          5.000E-03
     CRITERION FOR E. POT.  CORRECTION IN A NONLINEAR PROBLEM          1.000E-02
     INITIAL VALUE OF TIME AVERAGE CHARGE                              1.000E-02
     AVERAGE CHARGE    IS TIME AVERAGE CHARGE   
     ALTERNATE CRIT. FOR RESIDUAL CHARGE    FOR A NONLINEAR PROBLEM    2.000E-02
     CRITERION FOR ZERO CHARGE    RELATIVE TO TIME AVRG. CHARGE        1.000E-05
     CRITERION FOR RESIDUAL CHARGE    WHEN THERE IS ZERO FLUX          1.000E-05
     CRITERION FOR E. POT.  CORRECTION WHEN THERE IS ZERO FLUX         1.000E-03
     CRITERION FOR RESIDUAL CHARGE    FOR A LINEAR INCREMENT           1.000E-08
     FIELD CONVERSION RATIO                                             1.00    
     CRITERION FOR ZERO CHARGE    REL. TO TIME AVRG. MAX. CHARGE       1.000E-05

     VOLUMETRIC STRAIN COMPATIBILITY TOLERANCE FOR HYBRID SOLIDS       1.000E-05
     AXIAL STRAIN COMPATIBILITY TOLERANCE FOR HYBRID BEAMS             1.000E-05
     TRANS. SHEAR STRAIN COMPATIBILITY TOLERANCE FOR HYBRID BEAMS      1.000E-05
     SOFT CONTACT CONSTRAINT COMPATIBILITY TOLERANCE FOR P>P0          5.000E-03
     SOFT CONTACT CONSTRAINT COMPATIBILITY TOLERANCE FOR P=0.0         0.100    
     CONTACT FORCE ERROR TOLERANCE FOR CONVERT SDI=YES                 1.00    
     DISPLACEMENT COMPATIBILITY TOLERANCE FOR DCOUP ELEMENTS           1.000E-05
     ROTATION COMPATIBILITY TOLERANCE FOR DCOUP ELEMENTS               1.000E-05

 EQUILIBRIUM WILL BE CHECKED FOR SEVERE DISCONTINUITY ITERATIONS

 TIME INCREMENTATION CONTROL PARAMETERS:
     FIRST EQUILIBRIUM ITERATION FOR CONSECUTIVE DIVERGENCE CHECK              4
     EQUILIBRIUM ITERATION AT WHICH LOG. CONVERGENCE RATE CHECK BEGINS         8
     EQUILIBRIUM ITERATION AFTER WHICH ALTERNATE RESIDUAL IS USED              9
     MAXIMUM EQUILIBRIUM ITERATIONS ALLOWED                                   16
     EQUILIBRIUM ITERATION COUNT FOR CUT-BACK IN NEXT INCREMENT               10
     MAXIMUM EQUILIB. ITERS IN TWO INCREMENTS FOR TIME INCREMENT INCREASE      4
     MAXIMUM ITERATIONS FOR SEVERE DISCONTINUITIES                            50
     MAXIMUM CUT-BACKS ALLOWED IN AN INCREMENT                                 5
     MAXIMUM DISCON. ITERS IN TWO INCREMENTS FOR TIME INCREMENT INCREASE      50
     MAXIMUM CONTACT AUGMENTATIONS FOR *SURFACE BEHAVIOR,AUGMENTED LAGRANGE   50
     CONSECUTIVE INCS MEETING TIME INTEG. TOL. FOR TIME INC. INCREASE          3
     CUT-BACK FACTOR AFTER DIVERGENCE                                 0.2500    
     CUT-BACK FACTOR FOR TOO SLOW CONVERGENCE                         0.5000    
     CUT-BACK FACTOR AFTER TOO MANY EQUILIBRIUM ITERATIONS            0.7500    
     CUT-BACK FACTOR AFTER TOO MANY SEVERE DISCONTINUITY ITERATIONS   0.2500    
     CUT-BACK FACTOR AFTER PROBLEMS IN ELEMENT ASSEMBLY               0.2500    
     INCREASE FACTOR AFTER TWO INCREMENTS THAT CONVERGE QUICKLY        1.500    
     MAX. TIME INCREMENT INCREASE FACTOR ALLOWED                       1.500    
     MAX. TIME INCREMENT INCREASE FACTOR ALLOWED (DYNAMICS)            1.250    
     MAX. TIME INCREMENT INCREASE FACTOR ALLOWED (DIFFUSION)           2.000    
     MINIMUM TIME INCREMENT RATIO FOR EXTRAPOLATION TO OCCUR          0.1000    
     CUT-BACK FACTOR WHEN TIME INTEGRATION ACCURACY TOL. EXCEEDED     0.8500    
     MAX. RATIO OF TIME INTEG. MEASURE TO TOL. FOR TIME INC. INCREASE 0.7500    
     INCREASE FACTOR FOR TIME INCREMENT WHEN POSSIBLE                 0.8000    
     MIN. TIME INC. INCREASE FACTOR IN LINEAR TRANSIENT PROBLEMS      0.9500    
     MAX. RATIO OF TIME INCREMENT TO STABILITY LIMIT                   1.000    
     FRACTION OF STABILITY LIMIT FOR NEW TIME INCREMENT               0.9500    
     TIME INCREMENT INCREASE FACTOR BEFORE A TIME POINT                1.000    
     GLOBAL STABILIZATION CONTROL IS NOT USED

          PRINT OF INCREMENT NUMBER, TIME, ETC., EVERY    1  INCREMENTS

     THE MAXIMUM NUMBER OF INCREMENTS IN THIS STEP IS                 *******

     VELOCITY-BASED PARABOLIC EXTRAPOLATION WILL BE USED

     CHARACTERISTIC ELEMENT LENGTH     2.528E-02

     DETAILS REGARDING ACTUAL SOLUTION WAVEFRONT REQUESTED

     DETAILED OUTPUT OF DIAGNOSTICS TO DATABASE REQUESTED

     PRINT OF INCREMENT NUMBER, TIME, ETC., TO THE MESSAGE FILE EVERY     1  INCREMENTS

     ELEMENT OPERATIONS WILL BE CARRIED OUT IN PARALLEL USING   8 PROCESSORS

     PARALLEL CONTACT TRACKING ENABLED


     EQUATIONS ARE BEING REORDERED TO MINIMIZE WAVEFRONT

     COLLECTING MODEL CONSTRAINT INFORMATION FOR OVERCONSTRAINT CHECKS

     COLLECTING STEP CONSTRAINT INFORMATION FOR OVERCONSTRAINT CHECKS

  NUMBER OF EQUATIONS =    12247     NUMBER OF FLOATING PT. OPERATIONS =  1.92E+09

  USING THE DIRECT SOLVER WITH   8 PROCESSORS

     CHECK POINT   START OF SOLVER    

     CHECK POINT  END OF SOLVER       

       ELAPSED USER TIME (SEC)      =   1.1000    
       ELAPSED SYSTEM TIME (SEC)    =  0.10000    
       ELAPSED TOTAL CPU TIME (SEC) =   1.2000    
       ELAPSED WALLCLOCK TIME (SEC) =          0

  NUMBER OF EQUATIONS =    12247     NUMBER OF FLOATING PT. OPERATIONS =  1.92E+09

  USING THE DIRECT SOLVER WITH   8 PROCESSORS

     CHECK POINT   START OF SOLVER    

     CHECK POINT  END OF SOLVER       

       ELAPSED USER TIME (SEC)      =  0.70000    
       ELAPSED SYSTEM TIME (SEC)    =   0.0000    
       ELAPSED TOTAL CPU TIME (SEC) =  0.70000    
       ELAPSED WALLCLOCK TIME (SEC) =          0


  INCREMENT     1 STARTS. ATTEMPT NUMBER  1, TIME INCREMENT  1.000E-13
 
     INITIAL ELEMENT LOAD BALANCE
        COMPUTE NODE   1   PROCESS    NUMBER OF ELEMENTS
                              1            228
                              2            228
                              3            228
                              4            234
                              5            228
                              6            228
                              7            228
                              8            228

  NUMBER OF EQUATIONS =    13645     NUMBER OF FLOATING PT. OPERATIONS =  2.85E+09

  USING THE DIRECT SOLVER WITH   8 PROCESSORS

     CHECK POINT   START OF SOLVER    

     CHECK POINT  END OF SOLVER       

       ELAPSED USER TIME (SEC)      =   1.6000    
       ELAPSED SYSTEM TIME (SEC)    =   0.0000    
       ELAPSED TOTAL CPU TIME (SEC) =   1.6000    
       ELAPSED WALLCLOCK TIME (SEC) =          1

               CONVERGENCE CHECKS FOR EQUILIBRIUM ITERATION     1


 AVERAGE FORCE                      6.513E+03   TIME AVG. FORCE       6.513E+03
 LARGEST RESIDUAL FORCE            -1.376E-10   AT NODE        628   DOF  2
   INSTANCE: PIEZO-1                                                                         
 LARGEST INCREMENT OF DISP.        -1.915E-20   AT NODE         65   DOF  2
   INSTANCE: PIEZO-1                                                                         
 LARGEST CORRECTION TO DISP.       -1.915E-20   AT NODE         65   DOF  2
   INSTANCE: PIEZO-1                                                                         
          THE FORCE     EQUILIBRIUM RESPONSE WAS LINEAR IN THIS INCREMENT

 AVERAGE CHARGE                     4.934E-22   TIME AVG. CHARGE      1.000E-02
 LARGEST RESIDUAL CHARGE           -3.203E-21   AT NODE        619   DOF  9
   INSTANCE: PIEZO-1                                                                         
 LARGEST INCREMENT OF E. POT.       3.683E-11   AT NODE        598   DOF  9
   INSTANCE: PIEZO-1                                                                         
 LARGEST CORRECTION TO E. POT.      3.683E-11   AT NODE        598   DOF  9
   INSTANCE: PIEZO-1                                                                         
          THERE IS ZERO CHARGE    EVERYWHERE
 

 ***WARNING: THERE IS ZERO CHARGE EVERYWHERE IN THE MODEL BASED ON THE DEFAULT 
             CRITERION. PLEASE CHECK THE VALUE OF THE AVERAGE CHARGE DURING THE 
             CURRENT ITERATION TO VERIFY THAT THE CHARGE IS SMALL ENOUGH TO BE 
             TREATED AS ZERO. IF NOT, PLEASE USE THE SOLUTION CONTROLS TO RESET 
             THE CRITERION FOR ZERO CHARGE.

  MAXIMUM HALF-INCREMENT FORCE RESIDUAL IS   7.020E-06 AND OCCURS AT NODE        737 INSTANCE CYLINDER-1                                                                      

 ITERATION SUMMARY FOR THE INCREMENT:   1 TOTAL ITERATIONS, OF WHICH
   0 ARE SEVERE DISCONTINUITY ITERATIONS AND  1 ARE EQUILIBRIUM ITERATIONS.

 TIME INCREMENT COMPLETED  1.000E-13,  FRACTION OF STEP COMPLETED  1.250E-12
 STEP TIME COMPLETED       1.000E-13,  TOTAL TIME COMPLETED        1.000E-13


  INCREMENT     2 STARTS. ATTEMPT NUMBER  1, TIME INCREMENT  1.000E-13

  NUMBER OF EQUATIONS =    13645     NUMBER OF FLOATING PT. OPERATIONS =  2.85E+09

  USING THE DIRECT SOLVER WITH   8 PROCESSORS

     CHECK POINT   START OF SOLVER    

     CHECK POINT  END OF SOLVER       

       ELAPSED USER TIME (SEC)      =  0.90000    
       ELAPSED SYSTEM TIME (SEC)    =   0.0000    
       ELAPSED TOTAL CPU TIME (SEC) =  0.90000    
       ELAPSED WALLCLOCK TIME (SEC) =          1

               CONVERGENCE CHECKS FOR EQUILIBRIUM ITERATION     1


 AVERAGE FORCE                      6.513E+03   TIME AVG. FORCE       6.513E+03
 LARGEST RESIDUAL FORCE            -3.756E-10   AT NODE        563   DOF  2
   INSTANCE: PIEZO-1                                                                         
 LARGEST INCREMENT OF DISP.        -5.745E-20   AT NODE         65   DOF  2
   INSTANCE: PIEZO-1                                                                         
 LARGEST CORRECTION TO DISP.        1.870E-30   AT NODE         69   DOF  2
   INSTANCE: PIEZO-1                                                                         
          THE FORCE     EQUILIBRIUM RESPONSE WAS LINEAR IN THIS INCREMENT

 AVERAGE CHARGE                     1.836E-21   TIME AVG. CHARGE      1.000E-02
 LARGEST RESIDUAL CHARGE            3.247E-31   AT NODE        619   DOF  9
   INSTANCE: PIEZO-1                                                                         
 LARGEST INCREMENT OF E. POT.       1.182E-10   AT NODE        598   DOF  9
   INSTANCE: PIEZO-1                                                                         
 LARGEST CORRECTION TO E. POT.      8.088E-12   AT NODE        598   DOF  9
   INSTANCE: PIEZO-1                                                                         
          THERE IS ZERO CHARGE    EVERYWHERE
 

 ***WARNING: THERE IS ZERO CHARGE EVERYWHERE IN THE MODEL BASED ON THE DEFAULT 
             CRITERION. PLEASE CHECK THE VALUE OF THE AVERAGE CHARGE DURING THE 
             CURRENT ITERATION TO VERIFY THAT THE CHARGE IS SMALL ENOUGH TO BE 
             TREATED AS ZERO. IF NOT, PLEASE USE THE SOLUTION CONTROLS TO RESET 
             THE CRITERION FOR ZERO CHARGE.

  MAXIMUM HALF-INCREMENT FORCE RESIDUAL IS   7.020E-06 AND OCCURS AT NODE        738 INSTANCE CYLINDER-1                                                                      

 ITERATION SUMMARY FOR THE INCREMENT:   1 TOTAL ITERATIONS, OF WHICH
   0 ARE SEVERE DISCONTINUITY ITERATIONS AND  1 ARE EQUILIBRIUM ITERATIONS.

 TIME INCREMENT COMPLETED  1.000E-13,  FRACTION OF STEP COMPLETED  2.500E-12
 STEP TIME COMPLETED       2.000E-13,  TOTAL TIME COMPLETED        2.000E-13


  INCREMENT     3 STARTS. ATTEMPT NUMBER  1, TIME INCREMENT  1.000E-13

  NUMBER OF EQUATIONS =    13645     NUMBER OF FLOATING PT. OPERATIONS =  2.85E+09

  USING THE DIRECT SOLVER WITH   8 PROCESSORS

     CHECK POINT   START OF SOLVER    

     CHECK POINT  END OF SOLVER       

       ELAPSED USER TIME (SEC)      =  0.20000    
       ELAPSED SYSTEM TIME (SEC)    =   0.0000    
       ELAPSED TOTAL CPU TIME (SEC) =  0.20000    
       ELAPSED WALLCLOCK TIME (SEC) =          0

               CONVERGENCE CHECKS FOR EQUILIBRIUM ITERATION     1


 AVERAGE FORCE                      6.513E+03   TIME AVG. FORCE       6.513E+03
 LARGEST RESIDUAL FORCE            -9.087E-10   AT NODE        325   DOF  2
   INSTANCE: PIEZO-1                                                                         
 LARGEST INCREMENT OF DISP.        -9.576E-20   AT NODE         65   DOF  2
   INSTANCE: PIEZO-1                                                                         
 LARGEST CORRECTION TO DISP.        1.907E-30   AT NODE         65   DOF  2
   INSTANCE: PIEZO-1                                                                         
          THE FORCE     EQUILIBRIUM RESPONSE WAS LINEAR IN THIS INCREMENT

 AVERAGE CHARGE                     4.130E-21   TIME AVG. CHARGE      1.000E-02
 LARGEST RESIDUAL CHARGE            3.425E-31   AT NODE        619   DOF  9
   INSTANCE: PIEZO-1                                                                         
 LARGEST INCREMENT OF E. POT.       1.938E-10   AT NODE        598   DOF  9
   INSTANCE: PIEZO-1                                                                         
 LARGEST CORRECTION TO E. POT.     -1.410E-11   AT NODE        598   DOF  9
   INSTANCE: PIEZO-1                                                                         
          THERE IS ZERO CHARGE    EVERYWHERE
 

 ***WARNING: THERE IS ZERO CHARGE EVERYWHERE IN THE MODEL BASED ON THE DEFAULT 
             CRITERION. PLEASE CHECK THE VALUE OF THE AVERAGE CHARGE DURING THE 
             CURRENT ITERATION TO VERIFY THAT THE CHARGE IS SMALL ENOUGH TO BE 
             TREATED AS ZERO. IF NOT, PLEASE USE THE SOLUTION CONTROLS TO RESET 
             THE CRITERION FOR ZERO CHARGE.

  MAXIMUM HALF-INCREMENT FORCE RESIDUAL IS   7.021E-06 AND OCCURS AT NODE        806 INSTANCE CYLINDER-1                                                                      
          TIME INCREMENT MAY NOW INCREASE TO    1.250E-13

 ITERATION SUMMARY FOR THE INCREMENT:   1 TOTAL ITERATIONS, OF WHICH
   0 ARE SEVERE DISCONTINUITY ITERATIONS AND  1 ARE EQUILIBRIUM ITERATIONS.

 TIME INCREMENT COMPLETED  1.000E-13,  FRACTION OF STEP COMPLETED  3.750E-12
 STEP TIME COMPLETED       3.000E-13,  TOTAL TIME COMPLETED        3.000E-13


  INCREMENT     4 STARTS. ATTEMPT NUMBER  1, TIME INCREMENT  1.250E-13

  NUMBER OF EQUATIONS =    13645     NUMBER OF FLOATING PT. OPERATIONS =  2.85E+09

  USING THE DIRECT SOLVER WITH   8 PROCESSORS

     CHECK POINT   START OF SOLVER    

     CHECK POINT  END OF SOLVER       

       ELAPSED USER TIME (SEC)      =   1.2000    
       ELAPSED SYSTEM TIME (SEC)    =  0.10000    
       ELAPSED TOTAL CPU TIME (SEC) =   1.3000    
       ELAPSED WALLCLOCK TIME (SEC) =          0

               CONVERGENCE CHECKS FOR EQUILIBRIUM ITERATION     1


 AVERAGE FORCE                      6.513E+03   TIME AVG. FORCE       6.513E+03
 LARGEST RESIDUAL FORCE             9.779E-10   AT NODE        341   DOF  2
   INSTANCE: PIEZO-1                                                                         
 LARGEST INCREMENT OF DISP.        -1.736E-19   AT NODE         65   DOF  2
   INSTANCE: PIEZO-1                                                                         
 LARGEST CORRECTION TO DISP.        3.355E-30   AT NODE          9   DOF  2
   INSTANCE: PIEZO-1                                                                         
          THE FORCE     EQUILIBRIUM RESPONSE WAS LINEAR IN THIS INCREMENT

 AVERAGE CHARGE                     8.288E-21   TIME AVG. CHARGE      1.000E-02
 LARGEST RESIDUAL CHARGE            6.263E-31   AT NODE        319   DOF  9
   INSTANCE: PIEZO-1                                                                         
 LARGEST INCREMENT OF E. POT.       3.513E-10   AT NODE        598   DOF  9
   INSTANCE: PIEZO-1                                                                         
 LARGEST CORRECTION TO E. POT.      2.261E-11   AT NODE        598   DOF  9
   INSTANCE: PIEZO-1                                                                         
          THERE IS ZERO CHARGE    EVERYWHERE
 

 ***WARNING: THERE IS ZERO CHARGE EVERYWHERE IN THE MODEL BASED ON THE DEFAULT 
             CRITERION. PLEASE CHECK THE VALUE OF THE AVERAGE CHARGE DURING THE 
             CURRENT ITERATION TO VERIFY THAT THE CHARGE IS SMALL ENOUGH TO BE 
             TREATED AS ZERO. IF NOT, PLEASE USE THE SOLUTION CONTROLS TO RESET 
             THE CRITERION FOR ZERO CHARGE.

  MAXIMUM HALF-INCREMENT FORCE RESIDUAL IS   8.776E-06 AND OCCURS AT NODE        738 INSTANCE CYLINDER-1                                                                      
          TIME INCREMENT MAY NOW INCREASE TO    1.562E-13

 ITERATION SUMMARY FOR THE INCREMENT:   1 TOTAL ITERATIONS, OF WHICH
   0 ARE SEVERE DISCONTINUITY ITERATIONS AND  1 ARE EQUILIBRIUM ITERATIONS.

 TIME INCREMENT COMPLETED  1.250E-13,  FRACTION OF STEP COMPLETED  5.313E-12
 STEP TIME COMPLETED       4.250E-13,  TOTAL TIME COMPLETED        4.250E-13


  INCREMENT     5 STARTS. ATTEMPT NUMBER  1, TIME INCREMENT  1.562E-13

  NUMBER OF EQUATIONS =    13645     NUMBER OF FLOATING PT. OPERATIONS =  2.85E+09

  USING THE DIRECT SOLVER WITH   8 PROCESSORS

     CHECK POINT   START OF SOLVER    

     CHECK POINT  END OF SOLVER       

       ELAPSED USER TIME (SEC)      =  0.90000    
       ELAPSED SYSTEM TIME (SEC)    =   0.0000    
       ELAPSED TOTAL CPU TIME (SEC) =  0.90000    
       ELAPSED WALLCLOCK TIME (SEC) =          0

               CONVERGENCE CHECKS FOR EQUILIBRIUM ITERATION     1


 AVERAGE FORCE                      6.513E+03   TIME AVG. FORCE       6.513E+03
 LARGEST RESIDUAL FORCE             9.736E-10   AT NODE        645   DOF  2
   INSTANCE: PIEZO-1                                                                         
 LARGEST INCREMENT OF DISP.        -3.011E-19   AT NODE         65   DOF  2
   INSTANCE: PIEZO-1                                                                         
 LARGEST CORRECTION TO DISP.        6.497E-30   AT NODE          9   DOF  2
   INSTANCE: PIEZO-1                                                                         
          THE FORCE     EQUILIBRIUM RESPONSE WAS LINEAR IN THIS INCREMENT

 AVERAGE CHARGE                     1.550E-20   TIME AVG. CHARGE      1.000E-02
 LARGEST RESIDUAL CHARGE            1.266E-30   AT NODE        598   DOF  9
   INSTANCE: PIEZO-1                                                                         
 LARGEST INCREMENT OF E. POT.       6.096E-10   AT NODE        598   DOF  9
   INSTANCE: PIEZO-1                                                                         
 LARGEST CORRECTION TO E. POT.     -2.804E-11   AT NODE        598   DOF  9
   INSTANCE: PIEZO-1                                                                         
          THERE IS ZERO CHARGE    EVERYWHERE
 

 ***WARNING: THERE IS ZERO CHARGE EVERYWHERE IN THE MODEL BASED ON THE DEFAULT 
             CRITERION. PLEASE CHECK THE VALUE OF THE AVERAGE CHARGE DURING THE 
             CURRENT ITERATION TO VERIFY THAT THE CHARGE IS SMALL ENOUGH TO BE 
             TREATED AS ZERO. IF NOT, PLEASE USE THE SOLUTION CONTROLS TO RESET 
             THE CRITERION FOR ZERO CHARGE.

  MAXIMUM HALF-INCREMENT FORCE RESIDUAL IS   1.097E-05 AND OCCURS AT NODE        806 INSTANCE CYLINDER-1                                                                      
          TIME INCREMENT MAY NOW INCREASE TO    1.953E-13

 ITERATION SUMMARY FOR THE INCREMENT:   1 TOTAL ITERATIONS, OF WHICH
   0 ARE SEVERE DISCONTINUITY ITERATIONS AND  1 ARE EQUILIBRIUM ITERATIONS.

 TIME INCREMENT COMPLETED  1.562E-13,  FRACTION OF STEP COMPLETED  7.266E-12
 STEP TIME COMPLETED       5.812E-13,  TOTAL TIME COMPLETED        5.812E-13


  INCREMENT     6 STARTS. ATTEMPT NUMBER  1, TIME INCREMENT  1.953E-13

  NUMBER OF EQUATIONS =    13645     NUMBER OF FLOATING PT. OPERATIONS =  2.85E+09

  USING THE DIRECT SOLVER WITH   8 PROCESSORS

     CHECK POINT   START OF SOLVER    

     CHECK POINT  END OF SOLVER       

       ELAPSED USER TIME (SEC)      =   2.0000    
       ELAPSED SYSTEM TIME (SEC)    =   0.0000    
       ELAPSED TOTAL CPU TIME (SEC) =   2.0000    
       ELAPSED WALLCLOCK TIME (SEC) =          0

               CONVERGENCE CHECKS FOR EQUILIBRIUM ITERATION     1


 AVERAGE FORCE                      6.513E+03   TIME AVG. FORCE       6.513E+03
 LARGEST RESIDUAL FORCE            -8.888E-10   AT NODE        341   DOF  2
   INSTANCE: PIEZO-1                                                                         
 LARGEST INCREMENT OF DISP.        -5.079E-19   AT NODE         65   DOF  2
   INSTANCE: PIEZO-1                                                                         
 LARGEST CORRECTION TO DISP.        1.262E-29   AT NODE         13   DOF  2
   INSTANCE: PIEZO-1                                                                         
          THE FORCE     EQUILIBRIUM RESPONSE WAS LINEAR IN THIS INCREMENT

 AVERAGE CHARGE                     2.767E-20   TIME AVG. CHARGE      1.000E-02
 LARGEST RESIDUAL CHARGE            2.587E-30   AT NODE        619   DOF  9
   INSTANCE: PIEZO-1                                                                         
 LARGEST INCREMENT OF E. POT.       1.028E-09   AT NODE        598   DOF  9
   INSTANCE: PIEZO-1                                                                         
 LARGEST CORRECTION TO E. POT.      3.440E-11   AT NODE        598   DOF  9
   INSTANCE: PIEZO-1                                                                         
          THERE IS ZERO CHARGE    EVERYWHERE
 

 ***WARNING: THERE IS ZERO CHARGE EVERYWHERE IN THE MODEL BASED ON THE DEFAULT 
             CRITERION. PLEASE CHECK THE VALUE OF THE AVERAGE CHARGE DURING THE 
             CURRENT ITERATION TO VERIFY THAT THE CHARGE IS SMALL ENOUGH TO BE 
             TREATED AS ZERO. IF NOT, PLEASE USE THE SOLUTION CONTROLS TO RESET 
             THE CRITERION FOR ZERO CHARGE.

  MAXIMUM HALF-INCREMENT FORCE RESIDUAL IS   1.371E-05 AND OCCURS AT NODE        737 INSTANCE CYLINDER-1                                                                      
          TIME INCREMENT MAY NOW INCREASE TO    2.441E-13

 ITERATION SUMMARY FOR THE INCREMENT:   1 TOTAL ITERATIONS, OF WHICH
   0 ARE SEVERE DISCONTINUITY ITERATIONS AND  1 ARE EQUILIBRIUM ITERATIONS.

 TIME INCREMENT COMPLETED  1.953E-13,  FRACTION OF STEP COMPLETED  9.707E-12
 STEP TIME COMPLETED       7.766E-13,  TOTAL TIME COMPLETED        7.766E-13


  INCREMENT     7 STARTS. ATTEMPT NUMBER  1, TIME INCREMENT  2.441E-13

  NUMBER OF EQUATIONS =    13645     NUMBER OF FLOATING PT. OPERATIONS =  2.85E+09

  USING THE DIRECT SOLVER WITH   8 PROCESSORS

     CHECK POINT   START OF SOLVER    

     CHECK POINT  END OF SOLVER       

       ELAPSED USER TIME (SEC)      =   1.0000    
       ELAPSED SYSTEM TIME (SEC)    =   0.0000    
       ELAPSED TOTAL CPU TIME (SEC) =   1.0000    
       ELAPSED WALLCLOCK TIME (SEC) =          0

               CONVERGENCE CHECKS FOR EQUILIBRIUM ITERATION     1


 AVERAGE FORCE                      6.513E+03   TIME AVG. FORCE       6.513E+03
 LARGEST RESIDUAL FORCE            -1.690E-09   AT NODE        629   DOF  2
   INSTANCE: PIEZO-1                                                                         
 LARGEST INCREMENT OF DISP.        -8.403E-19   AT NODE         65   DOF  2
   INSTANCE: PIEZO-1                                                                         
 LARGEST CORRECTION TO DISP.        2.447E-29   AT NODE          9   DOF  2
   INSTANCE: PIEZO-1                                                                         
          THE FORCE     EQUILIBRIUM RESPONSE WAS LINEAR IN THIS INCREMENT

 AVERAGE CHARGE                     4.781E-20   TIME AVG. CHARGE      1.000E-02
 LARGEST RESIDUAL CHARGE            5.335E-30   AT NODE        598   DOF  9
   INSTANCE: PIEZO-1                                                                         
 LARGEST INCREMENT OF E. POT.       1.701E-09   AT NODE        598   DOF  9
   INSTANCE: PIEZO-1                                                                         
 LARGEST CORRECTION TO E. POT.     -4.174E-11   AT NODE        598   DOF  9
   INSTANCE: PIEZO-1                                                                         
          THERE IS ZERO CHARGE    EVERYWHERE
 

 ***WARNING: THERE IS ZERO CHARGE EVERYWHERE IN THE MODEL BASED ON THE DEFAULT 
             CRITERION. PLEASE CHECK THE VALUE OF THE AVERAGE CHARGE DURING THE 
             CURRENT ITERATION TO VERIFY THAT THE CHARGE IS SMALL ENOUGH TO BE 
             TREATED AS ZERO. IF NOT, PLEASE USE THE SOLUTION CONTROLS TO RESET 
             THE CRITERION FOR ZERO CHARGE.

  MAXIMUM HALF-INCREMENT FORCE RESIDUAL IS   1.714E-05 AND OCCURS AT NODE        737 INSTANCE CYLINDER-1                                                                      
          TIME INCREMENT MAY NOW INCREASE TO    3.052E-13

 ITERATION SUMMARY FOR THE INCREMENT:   1 TOTAL ITERATIONS, OF WHICH
   0 ARE SEVERE DISCONTINUITY ITERATIONS AND  1 ARE EQUILIBRIUM ITERATIONS.

 TIME INCREMENT COMPLETED  2.441E-13,  FRACTION OF STEP COMPLETED  1.276E-11
 STEP TIME COMPLETED       1.021E-12,  TOTAL TIME COMPLETED        1.021E-12


  INCREMENT     8 STARTS. ATTEMPT NUMBER  1, TIME INCREMENT  3.052E-13

  NUMBER OF EQUATIONS =    13645     NUMBER OF FLOATING PT. OPERATIONS =  2.85E+09

  USING THE DIRECT SOLVER WITH   8 PROCESSORS

     CHECK POINT   START OF SOLVER    

     CHECK POINT  END OF SOLVER       

       ELAPSED USER TIME (SEC)      =  0.90000    
       ELAPSED SYSTEM TIME (SEC)    =   0.0000    
       ELAPSED TOTAL CPU TIME (SEC) =  0.90000    
       ELAPSED WALLCLOCK TIME (SEC) =          0

               CONVERGENCE CHECKS FOR EQUILIBRIUM ITERATION     1


 AVERAGE FORCE                      6.513E+03   TIME AVG. FORCE       6.513E+03
 LARGEST RESIDUAL FORCE            -1.741E-09   AT NODE        629   DOF  2
   INSTANCE: PIEZO-1                                                                         
 LARGEST INCREMENT OF DISP.        -1.371E-18   AT NODE         65   DOF  2
   INSTANCE: PIEZO-1                                                                         
 LARGEST CORRECTION TO DISP.        4.738E-29   AT NODE         67   DOF  2
   INSTANCE: PIEZO-1                                                                         
          THE FORCE     EQUILIBRIUM RESPONSE WAS LINEAR IN THIS INCREMENT

 AVERAGE CHARGE                     8.067E-20   TIME AVG. CHARGE      1.000E-02
 LARGEST RESIDUAL CHARGE            1.111E-29   AT NODE        619   DOF  9
   INSTANCE: PIEZO-1                                                                         
 LARGEST INCREMENT OF E. POT.       2.776E-09   AT NODE        598   DOF  9
   INSTANCE: PIEZO-1                                                                         
 LARGEST CORRECTION TO E. POT.      5.003E-11   AT NODE        598   DOF  9
   INSTANCE: PIEZO-1                                                                         
          THERE IS ZERO CHARGE    EVERYWHERE
 

 ***WARNING: THERE IS ZERO CHARGE EVERYWHERE IN THE MODEL BASED ON THE DEFAULT 
             CRITERION. PLEASE CHECK THE VALUE OF THE AVERAGE CHARGE DURING THE 
             CURRENT ITERATION TO VERIFY THAT THE CHARGE IS SMALL ENOUGH TO BE 
             TREATED AS ZERO. IF NOT, PLEASE USE THE SOLUTION CONTROLS TO RESET 
             THE CRITERION FOR ZERO CHARGE.

  MAXIMUM HALF-INCREMENT FORCE RESIDUAL IS   2.142E-05 AND OCCURS AT NODE        806 INSTANCE CYLINDER-1                                                                      
          TIME INCREMENT MAY NOW INCREASE TO    3.815E-13

 ITERATION SUMMARY FOR THE INCREMENT:   1 TOTAL ITERATIONS, OF WHICH
   0 ARE SEVERE DISCONTINUITY ITERATIONS AND  1 ARE EQUILIBRIUM ITERATIONS.

 TIME INCREMENT COMPLETED  3.052E-13,  FRACTION OF STEP COMPLETED  1.657E-11
 STEP TIME COMPLETED       1.326E-12,  TOTAL TIME COMPLETED        1.326E-12


  INCREMENT     9 STARTS. ATTEMPT NUMBER  1, TIME INCREMENT  3.815E-13

  NUMBER OF EQUATIONS =    13645     NUMBER OF FLOATING PT. OPERATIONS =  2.85E+09

  USING THE DIRECT SOLVER WITH   8 PROCESSORS

     CHECK POINT   START OF SOLVER    

     CHECK POINT  END OF SOLVER       

       ELAPSED USER TIME (SEC)      =  0.90000    
       ELAPSED SYSTEM TIME (SEC)    =  0.10000    
       ELAPSED TOTAL CPU TIME (SEC) =   1.0000    
       ELAPSED WALLCLOCK TIME (SEC) =          0

               CONVERGENCE CHECKS FOR EQUILIBRIUM ITERATION     1


 AVERAGE FORCE                      6.513E+03   TIME AVG. FORCE       6.513E+03
 LARGEST RESIDUAL FORCE             1.236E-09   AT NODE        313   DOF  2
   INSTANCE: PIEZO-1                                                                         
 LARGEST INCREMENT OF DISP.        -2.216E-18   AT NODE         65   DOF  2
   INSTANCE: PIEZO-1                                                                         
 LARGEST CORRECTION TO DISP.        9.157E-29   AT NODE         67   DOF  2
   INSTANCE: PIEZO-1                                                                         
          THE FORCE     EQUILIBRIUM RESPONSE WAS LINEAR IN THIS INCREMENT

 AVERAGE CHARGE                     1.338E-19   TIME AVG. CHARGE      1.000E-02
 LARGEST RESIDUAL CHARGE            2.337E-29   AT NODE        598   DOF  9
   INSTANCE: PIEZO-1                                                                         
 LARGEST INCREMENT OF E. POT.       4.486E-09   AT NODE        598   DOF  9
   INSTANCE: PIEZO-1                                                                         
 LARGEST CORRECTION TO E. POT.     -5.915E-11   AT NODE        598   DOF  9
   INSTANCE: PIEZO-1                                                                         
          THERE IS ZERO CHARGE    EVERYWHERE
 

 ***WARNING: THERE IS ZERO CHARGE EVERYWHERE IN THE MODEL BASED ON THE DEFAULT 
             CRITERION. PLEASE CHECK THE VALUE OF THE AVERAGE CHARGE DURING THE 
             CURRENT ITERATION TO VERIFY THAT THE CHARGE IS SMALL ENOUGH TO BE 
             TREATED AS ZERO. IF NOT, PLEASE USE THE SOLUTION CONTROLS TO RESET 
             THE CRITERION FOR ZERO CHARGE.

  MAXIMUM HALF-INCREMENT FORCE RESIDUAL IS   2.678E-05 AND OCCURS AT NODE        738 INSTANCE CYLINDER-1                                                                      
          TIME INCREMENT MAY NOW INCREASE TO    4.768E-13

 ITERATION SUMMARY FOR THE INCREMENT:   1 TOTAL ITERATIONS, OF WHICH
   0 ARE SEVERE DISCONTINUITY ITERATIONS AND  1 ARE EQUILIBRIUM ITERATIONS.

 TIME INCREMENT COMPLETED  3.815E-13,  FRACTION OF STEP COMPLETED  2.134E-11
 STEP TIME COMPLETED       1.707E-12,  TOTAL TIME COMPLETED        1.707E-12


  INCREMENT    10 STARTS. ATTEMPT NUMBER  1, TIME INCREMENT  4.768E-13

  NUMBER OF EQUATIONS =    13645     NUMBER OF FLOATING PT. OPERATIONS =  2.85E+09

  USING THE DIRECT SOLVER WITH   8 PROCESSORS

     CHECK POINT   START OF SOLVER    

     CHECK POINT  END OF SOLVER       

       ELAPSED USER TIME (SEC)      =   1.0000    
       ELAPSED SYSTEM TIME (SEC)    =   0.0000    
       ELAPSED TOTAL CPU TIME (SEC) =   1.0000    
       ELAPSED WALLCLOCK TIME (SEC) =          0

               CONVERGENCE CHECKS FOR EQUILIBRIUM ITERATION     1


 AVERAGE FORCE                      6.513E+03   TIME AVG. FORCE       6.513E+03
 LARGEST RESIDUAL FORCE             1.303E-09   AT NODE        563   DOF  2
   INSTANCE: PIEZO-1                                                                         
 LARGEST INCREMENT OF DISP.        -3.554E-18   AT NODE         65   DOF  2
   INSTANCE: PIEZO-1                                                                         
 LARGEST CORRECTION TO DISP.        1.765E-28   AT NODE         53   DOF  2
   INSTANCE: PIEZO-1                                                                         
          THE FORCE     EQUILIBRIUM RESPONSE WAS LINEAR IN THIS INCREMENT

 AVERAGE CHARGE                     2.189E-19   TIME AVG. CHARGE      1.000E-02
 LARGEST RESIDUAL CHARGE            4.973E-29   AT NODE        619   DOF  9
   INSTANCE: PIEZO-1                                                                         
 LARGEST INCREMENT OF E. POT.       7.194E-09   AT NODE        598   DOF  9
   INSTANCE: PIEZO-1                                                                         
 LARGEST CORRECTION TO E. POT.      6.886E-11   AT NODE        598   DOF  9
   INSTANCE: PIEZO-1                                                                         
          THERE IS ZERO CHARGE    EVERYWHERE
 

 ***WARNING: THERE IS ZERO CHARGE EVERYWHERE IN THE MODEL BASED ON THE DEFAULT 
             CRITERION. PLEASE CHECK THE VALUE OF THE AVERAGE CHARGE DURING THE 
             CURRENT ITERATION TO VERIFY THAT THE CHARGE IS SMALL ENOUGH TO BE 
             TREATED AS ZERO. IF NOT, PLEASE USE THE SOLUTION CONTROLS TO RESET 
             THE CRITERION FOR ZERO CHARGE.

  MAXIMUM HALF-INCREMENT FORCE RESIDUAL IS   3.347E-05 AND OCCURS AT NODE        805 INSTANCE CYLINDER-1                                                                      
          TIME INCREMENT MAY NOW INCREASE TO    5.960E-13

 ITERATION SUMMARY FOR THE INCREMENT:   1 TOTAL ITERATIONS, OF WHICH
   0 ARE SEVERE DISCONTINUITY ITERATIONS AND  1 ARE EQUILIBRIUM ITERATIONS.

 TIME INCREMENT COMPLETED  4.768E-13,  FRACTION OF STEP COMPLETED  2.730E-11
 STEP TIME COMPLETED       2.184E-12,  TOTAL TIME COMPLETED        2.184E-12


  INCREMENT    11 STARTS. ATTEMPT NUMBER  1, TIME INCREMENT  5.960E-13

  NUMBER OF EQUATIONS =    13645     NUMBER OF FLOATING PT. OPERATIONS =  2.85E+09

  USING THE DIRECT SOLVER WITH   8 PROCESSORS

     CHECK POINT   START OF SOLVER    

     CHECK POINT  END OF SOLVER       

       ELAPSED USER TIME (SEC)      =  0.90000    
       ELAPSED SYSTEM TIME (SEC)    =  0.10000    
       ELAPSED TOTAL CPU TIME (SEC) =   1.0000    
       ELAPSED WALLCLOCK TIME (SEC) =          0

               CONVERGENCE CHECKS FOR EQUILIBRIUM ITERATION     1


 AVERAGE FORCE                      6.513E+03   TIME AVG. FORCE       6.513E+03
 LARGEST RESIDUAL FORCE             2.116E-09   AT NODE        325   DOF  2
   INSTANCE: PIEZO-1                                                                         
 LARGEST INCREMENT OF DISP.        -5.667E-18   AT NODE         65   DOF  2
   INSTANCE: PIEZO-1                                                                         
 LARGEST CORRECTION TO DISP.        3.393E-28   AT NODE         53   DOF  2
   INSTANCE: PIEZO-1                                                                         
          THE FORCE     EQUILIBRIUM RESPONSE WAS LINEAR IN THIS INCREMENT

 AVERAGE CHARGE                     3.547E-19   TIME AVG. CHARGE      1.000E-02
 LARGEST RESIDUAL CHARGE            1.071E-28   AT NODE        619   DOF  9
   INSTANCE: PIEZO-1                                                                         
 LARGEST INCREMENT OF E. POT.       1.147E-08   AT NODE        598   DOF  9
   INSTANCE: PIEZO-1                                                                         
 LARGEST CORRECTION TO E. POT.     -7.869E-11   AT NODE        598   DOF  9
   INSTANCE: PIEZO-1                                                                         
          THERE IS ZERO CHARGE    EVERYWHERE
 

 ***WARNING: THERE IS ZERO CHARGE EVERYWHERE IN THE MODEL BASED ON THE DEFAULT 
             CRITERION. PLEASE CHECK THE VALUE OF THE AVERAGE CHARGE DURING THE 
             CURRENT ITERATION TO VERIFY THAT THE CHARGE IS SMALL ENOUGH TO BE 
             TREATED AS ZERO. IF NOT, PLEASE USE THE SOLUTION CONTROLS TO RESET 
             THE CRITERION FOR ZERO CHARGE.

  MAXIMUM HALF-INCREMENT FORCE RESIDUAL IS   4.184E-05 AND OCCURS AT NODE        805 INSTANCE CYLINDER-1                                                                      
          TIME INCREMENT MAY NOW INCREASE TO    7.451E-13

 ITERATION SUMMARY FOR THE INCREMENT:   1 TOTAL ITERATIONS, OF WHICH
   0 ARE SEVERE DISCONTINUITY ITERATIONS AND  1 ARE EQUILIBRIUM ITERATIONS.

 TIME INCREMENT COMPLETED  5.960E-13,  FRACTION OF STEP COMPLETED  3.475E-11
 STEP TIME COMPLETED       2.780E-12,  TOTAL TIME COMPLETED        2.780E-12


  INCREMENT    12 STARTS. ATTEMPT NUMBER  1, TIME INCREMENT  7.451E-13

  NUMBER OF EQUATIONS =    13645     NUMBER OF FLOATING PT. OPERATIONS =  2.85E+09

  USING THE DIRECT SOLVER WITH   8 PROCESSORS

     CHECK POINT   START OF SOLVER    

     CHECK POINT  END OF SOLVER       

       ELAPSED USER TIME (SEC)      =  0.90000    
       ELAPSED SYSTEM TIME (SEC)    =   0.0000    
       ELAPSED TOTAL CPU TIME (SEC) =  0.90000    
       ELAPSED WALLCLOCK TIME (SEC) =          0

               CONVERGENCE CHECKS FOR EQUILIBRIUM ITERATION     1


 AVERAGE FORCE                      6.513E+03   TIME AVG. FORCE       6.513E+03
 LARGEST RESIDUAL FORCE             2.003E-09   AT NODE        365   DOF  2
   INSTANCE: PIEZO-1                                                                         
 LARGEST INCREMENT OF DISP.        -8.997E-18   AT NODE         65   DOF  2
   INSTANCE: PIEZO-1                                                                         
 LARGEST CORRECTION TO DISP.        6.556E-28   AT NODE        405   DOF  2
   INSTANCE: PIEZO-1                                                                         
          THE FORCE     EQUILIBRIUM RESPONSE WAS LINEAR IN THIS INCREMENT

 AVERAGE CHARGE                     5.703E-19   TIME AVG. CHARGE      1.000E-02
 LARGEST RESIDUAL CHARGE            2.336E-28   AT NODE        619   DOF  9
   INSTANCE: PIEZO-1                                                                         
 LARGEST INCREMENT OF E. POT.       1.821E-08   AT NODE        598   DOF  9
   INSTANCE: PIEZO-1                                                                         
 LARGEST CORRECTION TO E. POT.      8.792E-11   AT NODE        598   DOF  9
   INSTANCE: PIEZO-1                                                                         
          THERE IS ZERO CHARGE    EVERYWHERE
 

 ***WARNING: THERE IS ZERO CHARGE EVERYWHERE IN THE MODEL BASED ON THE DEFAULT 
             CRITERION. PLEASE CHECK THE VALUE OF THE AVERAGE CHARGE DURING THE 
             CURRENT ITERATION TO VERIFY THAT THE CHARGE IS SMALL ENOUGH TO BE 
             TREATED AS ZERO. IF NOT, PLEASE USE THE SOLUTION CONTROLS TO RESET 
             THE CRITERION FOR ZERO CHARGE.

  MAXIMUM HALF-INCREMENT FORCE RESIDUAL IS   5.230E-05 AND OCCURS AT NODE       1381 INSTANCE CYLINDER-1                                                                      
          TIME INCREMENT MAY NOW INCREASE TO    9.313E-13

 ITERATION SUMMARY FOR THE INCREMENT:   1 TOTAL ITERATIONS, OF WHICH
   0 ARE SEVERE DISCONTINUITY ITERATIONS AND  1 ARE EQUILIBRIUM ITERATIONS.

 TIME INCREMENT COMPLETED  7.451E-13,  FRACTION OF STEP COMPLETED  4.407E-11
 STEP TIME COMPLETED       3.525E-12,  TOTAL TIME COMPLETED        3.525E-12


  INCREMENT    13 STARTS. ATTEMPT NUMBER  1, TIME INCREMENT  9.313E-13

  NUMBER OF EQUATIONS =    13645     NUMBER OF FLOATING PT. OPERATIONS =  2.85E+09

  USING THE DIRECT SOLVER WITH   8 PROCESSORS

     CHECK POINT   START OF SOLVER    

     CHECK POINT  END OF SOLVER       

       ELAPSED USER TIME (SEC)      =  0.90000    
       ELAPSED SYSTEM TIME (SEC)    =  0.10000    
       ELAPSED TOTAL CPU TIME (SEC) =   1.0000    
       ELAPSED WALLCLOCK TIME (SEC) =          0

               CONVERGENCE CHECKS FOR EQUILIBRIUM ITERATION     1


 AVERAGE FORCE                      6.513E+03   TIME AVG. FORCE       6.513E+03
 LARGEST RESIDUAL FORCE            -1.772E-09   AT NODE        325   DOF  2
   INSTANCE: PIEZO-1                                                                         
 LARGEST INCREMENT OF DISP.        -1.424E-17   AT NODE         65   DOF  2
   INSTANCE: PIEZO-1                                                                         
 LARGEST CORRECTION TO DISP.        1.287E-27   AT NODE        486   DOF  2
   INSTANCE: PIEZO-1                                                                         
          THE FORCE     EQUILIBRIUM RESPONSE WAS LINEAR IN THIS INCREMENT

 AVERAGE CHARGE                     9.114E-19   TIME AVG. CHARGE      1.000E-02
 LARGEST RESIDUAL CHARGE            5.157E-28   AT NODE        352   DOF  9
   INSTANCE: PIEZO-1                                                                         
 LARGEST INCREMENT OF E. POT.       2.882E-08   AT NODE        598   DOF  9
   INSTANCE: PIEZO-1                                                                         
 LARGEST CORRECTION TO E. POT.     -9.542E-11   AT NODE        598   DOF  9
   INSTANCE: PIEZO-1                                                                         
          THERE IS ZERO CHARGE    EVERYWHERE
 

 ***WARNING: THERE IS ZERO CHARGE EVERYWHERE IN THE MODEL BASED ON THE DEFAULT 
             CRITERION. PLEASE CHECK THE VALUE OF THE AVERAGE CHARGE DURING THE 
             CURRENT ITERATION TO VERIFY THAT THE CHARGE IS SMALL ENOUGH TO BE 
             TREATED AS ZERO. IF NOT, PLEASE USE THE SOLUTION CONTROLS TO RESET 
             THE CRITERION FOR ZERO CHARGE.

  MAXIMUM HALF-INCREMENT FORCE RESIDUAL IS   6.537E-05 AND OCCURS AT NODE       1381 INSTANCE CYLINDER-1                                                                      
          TIME INCREMENT MAY NOW INCREASE TO    1.164E-12

 ITERATION SUMMARY FOR THE INCREMENT:   1 TOTAL ITERATIONS, OF WHICH
   0 ARE SEVERE DISCONTINUITY ITERATIONS AND  1 ARE EQUILIBRIUM ITERATIONS.

 TIME INCREMENT COMPLETED  9.313E-13,  FRACTION OF STEP COMPLETED  5.571E-11
 STEP TIME COMPLETED       4.457E-12,  TOTAL TIME COMPLETED        4.457E-12


  INCREMENT    14 STARTS. ATTEMPT NUMBER  1, TIME INCREMENT  1.164E-12

  NUMBER OF EQUATIONS =    13645     NUMBER OF FLOATING PT. OPERATIONS =  2.85E+09

  USING THE DIRECT SOLVER WITH   8 PROCESSORS

     CHECK POINT   START OF SOLVER    

     CHECK POINT  END OF SOLVER       

       ELAPSED USER TIME (SEC)      =   1.0000    
       ELAPSED SYSTEM TIME (SEC)    =   0.0000    
       ELAPSED TOTAL CPU TIME (SEC) =   1.0000    
       ELAPSED WALLCLOCK TIME (SEC) =          0

               CONVERGENCE CHECKS FOR EQUILIBRIUM ITERATION     1


 AVERAGE FORCE                      6.513E+03   TIME AVG. FORCE       6.513E+03
 LARGEST RESIDUAL FORCE             1.432E-09   AT NODE        357   DOF  2
   INSTANCE: PIEZO-1                                                                         
 LARGEST INCREMENT OF DISP.        -2.247E-17   AT NODE         65   DOF  2
   INSTANCE: PIEZO-1                                                                         
 LARGEST CORRECTION TO DISP.        2.529E-27   AT NODE        471   DOF  2
   INSTANCE: PIEZO-1                                                                         
          THE FORCE     EQUILIBRIUM RESPONSE WAS LINEAR IN THIS INCREMENT

 AVERAGE CHARGE                     1.450E-18   TIME AVG. CHARGE      1.000E-02
 LARGEST RESIDUAL CHARGE            1.153E-27   AT NODE        352   DOF  9
   INSTANCE: PIEZO-1                                                                         
 LARGEST INCREMENT OF E. POT.       4.548E-08   AT NODE        598   DOF  9
   INSTANCE: PIEZO-1                                                                         
 LARGEST CORRECTION TO E. POT.      9.954E-11   AT NODE        598   DOF  9
   INSTANCE: PIEZO-1                                                                         
          THERE IS ZERO CHARGE    EVERYWHERE
 

 ***WARNING: THERE IS ZERO CHARGE EVERYWHERE IN THE MODEL BASED ON THE DEFAULT 
             CRITERION. PLEASE CHECK THE VALUE OF THE AVERAGE CHARGE DURING THE 
             CURRENT ITERATION TO VERIFY THAT THE CHARGE IS SMALL ENOUGH TO BE 
             TREATED AS ZERO. IF NOT, PLEASE USE THE SOLUTION CONTROLS TO RESET 
             THE CRITERION FOR ZERO CHARGE.

  MAXIMUM HALF-INCREMENT FORCE RESIDUAL IS   8.170E-05 AND OCCURS AT NODE        853 INSTANCE CYLINDER-1                                                                      
          TIME INCREMENT MAY NOW INCREASE TO    1.455E-12

 ITERATION SUMMARY FOR THE INCREMENT:   1 TOTAL ITERATIONS, OF WHICH
   0 ARE SEVERE DISCONTINUITY ITERATIONS AND  1 ARE EQUILIBRIUM ITERATIONS.

 TIME INCREMENT COMPLETED  1.164E-12,  FRACTION OF STEP COMPLETED  7.026E-11
 STEP TIME COMPLETED       5.621E-12,  TOTAL TIME COMPLETED        5.621E-12


  INCREMENT    15 STARTS. ATTEMPT NUMBER  1, TIME INCREMENT  1.455E-12

  NUMBER OF EQUATIONS =    13645     NUMBER OF FLOATING PT. OPERATIONS =  2.85E+09

  USING THE DIRECT SOLVER WITH   8 PROCESSORS

     CHECK POINT   START OF SOLVER    

     CHECK POINT  END OF SOLVER       

       ELAPSED USER TIME (SEC)      =  0.90000    
       ELAPSED SYSTEM TIME (SEC)    =   0.0000    
       ELAPSED TOTAL CPU TIME (SEC) =  0.90000    
       ELAPSED WALLCLOCK TIME (SEC) =          0

               CONVERGENCE CHECKS FOR EQUILIBRIUM ITERATION     1


 AVERAGE FORCE                      6.513E+03   TIME AVG. FORCE       6.513E+03
 LARGEST RESIDUAL FORCE            -1.357E-09   AT NODE        392   DOF  2
   INSTANCE: PIEZO-1                                                                         
 LARGEST INCREMENT OF DISP.        -3.538E-17   AT NODE         65   DOF  2
   INSTANCE: PIEZO-1                                                                         
 LARGEST CORRECTION TO DISP.        5.493E-27   AT NODE        142   DOF  2
   INSTANCE: PIEZO-1                                                                         
          THE FORCE     EQUILIBRIUM RESPONSE WAS LINEAR IN THIS INCREMENT

 AVERAGE CHARGE                     2.298E-18   TIME AVG. CHARGE      1.000E-02
 LARGEST RESIDUAL CHARGE            2.606E-27   AT NODE        598   DOF  9
   INSTANCE: PIEZO-1                                                                         
 LARGEST INCREMENT OF E. POT.       7.163E-08   AT NODE        598   DOF  9
   INSTANCE: PIEZO-1                                                                         
 LARGEST CORRECTION TO E. POT.     -9.791E-11   AT NODE        598   DOF  9
   INSTANCE: PIEZO-1                                                                         
          THERE IS ZERO CHARGE    EVERYWHERE
 

 ***WARNING: THERE IS ZERO CHARGE EVERYWHERE IN THE MODEL BASED ON THE DEFAULT 
             CRITERION. PLEASE CHECK THE VALUE OF THE AVERAGE CHARGE DURING THE 
             CURRENT ITERATION TO VERIFY THAT THE CHARGE IS SMALL ENOUGH TO BE 
             TREATED AS ZERO. IF NOT, PLEASE USE THE SOLUTION CONTROLS TO RESET 
             THE CRITERION FOR ZERO CHARGE.

  MAXIMUM HALF-INCREMENT FORCE RESIDUAL IS   1.021E-04 AND OCCURS AT NODE        854 INSTANCE CYLINDER-1                                                                      
          TIME INCREMENT MAY NOW INCREASE TO    1.819E-12

 ITERATION SUMMARY FOR THE INCREMENT:   1 TOTAL ITERATIONS, OF WHICH
   0 ARE SEVERE DISCONTINUITY ITERATIONS AND  1 ARE EQUILIBRIUM ITERATIONS.

 TIME INCREMENT COMPLETED  1.455E-12,  FRACTION OF STEP COMPLETED  8.845E-11
 STEP TIME COMPLETED       7.076E-12,  TOTAL TIME COMPLETED        7.076E-12


  INCREMENT    16 STARTS. ATTEMPT NUMBER  1, TIME INCREMENT  1.819E-12

  NUMBER OF EQUATIONS =    13645     NUMBER OF FLOATING PT. OPERATIONS =  2.85E+09

  USING THE DIRECT SOLVER WITH   8 PROCESSORS

     CHECK POINT   START OF SOLVER    

     CHECK POINT  END OF SOLVER       

       ELAPSED USER TIME (SEC)      =   2.3000    
       ELAPSED SYSTEM TIME (SEC)    =   0.0000    
       ELAPSED TOTAL CPU TIME (SEC) =   2.3000    
       ELAPSED WALLCLOCK TIME (SEC) =          0

               CONVERGENCE CHECKS FOR EQUILIBRIUM ITERATION     1


 AVERAGE FORCE                      6.513E+03   TIME AVG. FORCE       6.513E+03
 LARGEST RESIDUAL FORCE            -1.407E-09   AT NODE        431   DOF  2
   INSTANCE: PIEZO-1                                                                         
 LARGEST INCREMENT OF DISP.        -5.564E-17   AT NODE         65   DOF  2
   INSTANCE: PIEZO-1                                                                         
 LARGEST CORRECTION TO DISP.        1.316E-26   AT NODE        146   DOF  2
   INSTANCE: PIEZO-1                                                                         
          THE FORCE     EQUILIBRIUM RESPONSE WAS LINEAR IN THIS INCREMENT

 AVERAGE CHARGE                     3.631E-18   TIME AVG. CHARGE      1.000E-02
 LARGEST RESIDUAL CHARGE            5.955E-27   AT NODE        352   DOF  9
   INSTANCE: PIEZO-1                                                                         
 LARGEST INCREMENT OF E. POT.       1.126E-07   AT NODE        598   DOF  9
   INSTANCE: PIEZO-1                                                                         
 LARGEST CORRECTION TO E. POT.      8.723E-11   AT NODE        598   DOF  9
   INSTANCE: PIEZO-1                                                                         
          THERE IS ZERO CHARGE    EVERYWHERE
 

 ***WARNING: THERE IS ZERO CHARGE EVERYWHERE IN THE MODEL BASED ON THE DEFAULT 
             CRITERION. PLEASE CHECK THE VALUE OF THE AVERAGE CHARGE DURING THE 
             CURRENT ITERATION TO VERIFY THAT THE CHARGE IS SMALL ENOUGH TO BE 
             TREATED AS ZERO. IF NOT, PLEASE USE THE SOLUTION CONTROLS TO RESET 
             THE CRITERION FOR ZERO CHARGE.

  MAXIMUM HALF-INCREMENT FORCE RESIDUAL IS   1.276E-04 AND OCCURS AT NODE       1382 INSTANCE CYLINDER-1                                                                      
          TIME INCREMENT MAY NOW INCREASE TO    2.274E-12

 ITERATION SUMMARY FOR THE INCREMENT:   1 TOTAL ITERATIONS, OF WHICH
   0 ARE SEVERE DISCONTINUITY ITERATIONS AND  1 ARE EQUILIBRIUM ITERATIONS.

 TIME INCREMENT COMPLETED  1.819E-12,  FRACTION OF STEP COMPLETED  1.112E-10
 STEP TIME COMPLETED       8.895E-12,  TOTAL TIME COMPLETED        8.895E-12


  INCREMENT    17 STARTS. ATTEMPT NUMBER  1, TIME INCREMENT  2.274E-12

  NUMBER OF EQUATIONS =    13645     NUMBER OF FLOATING PT. OPERATIONS =  2.85E+09

  USING THE DIRECT SOLVER WITH   8 PROCESSORS

     CHECK POINT   START OF SOLVER    

     CHECK POINT  END OF SOLVER       

       ELAPSED USER TIME (SEC)      =   2.0000    
       ELAPSED SYSTEM TIME (SEC)    =   0.0000    
       ELAPSED TOTAL CPU TIME (SEC) =   2.0000    
       ELAPSED WALLCLOCK TIME (SEC) =          1

               CONVERGENCE CHECKS FOR EQUILIBRIUM ITERATION     1


 AVERAGE FORCE                      6.513E+03   TIME AVG. FORCE       6.513E+03
 LARGEST RESIDUAL FORCE             1.365E-09   AT NODE        524   DOF  2
   INSTANCE: PIEZO-1                                                                         
 LARGEST INCREMENT OF DISP.        -8.737E-17   AT NODE         65   DOF  2
   INSTANCE: PIEZO-1                                                                         
 LARGEST CORRECTION TO DISP.        3.165E-26   AT NODE        142   DOF  2
   INSTANCE: PIEZO-1                                                                         
          THE FORCE     EQUILIBRIUM RESPONSE WAS LINEAR IN THIS INCREMENT

 AVERAGE CHARGE                     5.724E-18   TIME AVG. CHARGE      1.000E-02
 LARGEST RESIDUAL CHARGE            1.375E-26   AT NODE        598   DOF  9
   INSTANCE: PIEZO-1                                                                         
 LARGEST INCREMENT OF E. POT.       1.769E-07   AT NODE        598   DOF  9
   INSTANCE: PIEZO-1                                                                         
 LARGEST CORRECTION TO E. POT.     -6.295E-11   AT NODE        598   DOF  9
   INSTANCE: PIEZO-1                                                                         
          THERE IS ZERO CHARGE    EVERYWHERE
 

 ***WARNING: THERE IS ZERO CHARGE EVERYWHERE IN THE MODEL BASED ON THE DEFAULT 
             CRITERION. PLEASE CHECK THE VALUE OF THE AVERAGE CHARGE DURING THE 
             CURRENT ITERATION TO VERIFY THAT THE CHARGE IS SMALL ENOUGH TO BE 
             TREATED AS ZERO. IF NOT, PLEASE USE THE SOLUTION CONTROLS TO RESET 
             THE CRITERION FOR ZERO CHARGE.

  MAXIMUM HALF-INCREMENT FORCE RESIDUAL IS   1.595E-04 AND OCCURS AT NODE       1381 INSTANCE CYLINDER-1                                                                      
          TIME INCREMENT MAY NOW INCREASE TO    2.842E-12

 ITERATION SUMMARY FOR THE INCREMENT:   1 TOTAL ITERATIONS, OF WHICH
   0 ARE SEVERE DISCONTINUITY ITERATIONS AND  1 ARE EQUILIBRIUM ITERATIONS.

 TIME INCREMENT COMPLETED  2.274E-12,  FRACTION OF STEP COMPLETED  1.396E-10
 STEP TIME COMPLETED       1.117E-11,  TOTAL TIME COMPLETED        1.117E-11


  INCREMENT    18 STARTS. ATTEMPT NUMBER  1, TIME INCREMENT  2.842E-12

  NUMBER OF EQUATIONS =    13645     NUMBER OF FLOATING PT. OPERATIONS =  2.85E+09

  USING THE DIRECT SOLVER WITH   8 PROCESSORS

     CHECK POINT   START OF SOLVER    

     CHECK POINT  END OF SOLVER       

       ELAPSED USER TIME (SEC)      =   1.3000    
       ELAPSED SYSTEM TIME (SEC)    =   0.0000    
       ELAPSED TOTAL CPU TIME (SEC) =   1.3000    
       ELAPSED WALLCLOCK TIME (SEC) =          1

               CONVERGENCE CHECKS FOR EQUILIBRIUM ITERATION     1


 AVERAGE FORCE                      6.513E+03   TIME AVG. FORCE       6.513E+03
 LARGEST RESIDUAL FORCE            -1.494E-09   AT NODE        524   DOF  2
   INSTANCE: PIEZO-1                                                                         
 LARGEST INCREMENT OF DISP.        -1.371E-16   AT NODE         65   DOF  2
   INSTANCE: PIEZO-1                                                                         
 LARGEST CORRECTION TO DISP.        7.631E-26   AT NODE        142   DOF  2
   INSTANCE: PIEZO-1                                                                         
          THE FORCE     EQUILIBRIUM RESPONSE WAS LINEAR IN THIS INCREMENT

 AVERAGE CHARGE                     9.008E-18   TIME AVG. CHARGE      1.000E-02
 LARGEST RESIDUAL CHARGE            3.201E-26   AT NODE        319   DOF  9
   INSTANCE: PIEZO-1                                                                         
 LARGEST INCREMENT OF E. POT.       2.775E-07   AT NODE        598   DOF  9
   INSTANCE: PIEZO-1                                                                         
 LARGEST CORRECTION TO E. POT.      1.894E-11   AT NODE        598   DOF  9
   INSTANCE: PIEZO-1                                                                         
          THERE IS ZERO CHARGE    EVERYWHERE
 

 ***WARNING: THERE IS ZERO CHARGE EVERYWHERE IN THE MODEL BASED ON THE DEFAULT 
             CRITERION. PLEASE CHECK THE VALUE OF THE AVERAGE CHARGE DURING THE 
             CURRENT ITERATION TO VERIFY THAT THE CHARGE IS SMALL ENOUGH TO BE 
             TREATED AS ZERO. IF NOT, PLEASE USE THE SOLUTION CONTROLS TO RESET 
             THE CRITERION FOR ZERO CHARGE.

  MAXIMUM HALF-INCREMENT FORCE RESIDUAL IS   1.994E-04 AND OCCURS AT NODE        854 INSTANCE CYLINDER-1                                                                      
          TIME INCREMENT MAY NOW INCREASE TO    3.553E-12

 ITERATION SUMMARY FOR THE INCREMENT:   1 TOTAL ITERATIONS, OF WHICH
   0 ARE SEVERE DISCONTINUITY ITERATIONS AND  1 ARE EQUILIBRIUM ITERATIONS.

 TIME INCREMENT COMPLETED  2.842E-12,  FRACTION OF STEP COMPLETED  1.751E-10
 STEP TIME COMPLETED       1.401E-11,  TOTAL TIME COMPLETED        1.401E-11


  INCREMENT    19 STARTS. ATTEMPT NUMBER  1, TIME INCREMENT  3.553E-12

  NUMBER OF EQUATIONS =    13645     NUMBER OF FLOATING PT. OPERATIONS =  2.85E+09

  USING THE DIRECT SOLVER WITH   8 PROCESSORS

     CHECK POINT   START OF SOLVER    

     CHECK POINT  END OF SOLVER       

       ELAPSED USER TIME (SEC)      =   2.2000    
       ELAPSED SYSTEM TIME (SEC)    =   0.0000    
       ELAPSED TOTAL CPU TIME (SEC) =   2.2000    
       ELAPSED WALLCLOCK TIME (SEC) =          0

               CONVERGENCE CHECKS FOR EQUILIBRIUM ITERATION     1


 AVERAGE FORCE                      6.513E+03   TIME AVG. FORCE       6.513E+03
 LARGEST RESIDUAL FORCE             1.438E-09   AT NODE        563   DOF  2
   INSTANCE: PIEZO-1                                                                         
 LARGEST INCREMENT OF DISP.        -2.148E-16   AT NODE         65   DOF  2
   INSTANCE: PIEZO-1                                                                         
 LARGEST CORRECTION TO DISP.        1.845E-25   AT NODE        142   DOF  2
   INSTANCE: PIEZO-1                                                                         
          THE FORCE     EQUILIBRIUM RESPONSE WAS LINEAR IN THIS INCREMENT

 AVERAGE CHARGE                     1.416E-17   TIME AVG. CHARGE      1.000E-02
 LARGEST RESIDUAL CHARGE            7.512E-26   AT NODE        619   DOF  9
   INSTANCE: PIEZO-1                                                                         
 LARGEST INCREMENT OF E. POT.       4.349E-07   AT NODE        598   DOF  9
   INSTANCE: PIEZO-1                                                                         
 LARGEST CORRECTION TO E. POT.      5.299E-11   AT NODE        598   DOF  9
   INSTANCE: PIEZO-1                                                                         
          THERE IS ZERO CHARGE    EVERYWHERE
 

 ***WARNING: THERE IS ZERO CHARGE EVERYWHERE IN THE MODEL BASED ON THE DEFAULT 
             CRITERION. PLEASE CHECK THE VALUE OF THE AVERAGE CHARGE DURING THE 
             CURRENT ITERATION TO VERIFY THAT THE CHARGE IS SMALL ENOUGH TO BE 
             TREATED AS ZERO. IF NOT, PLEASE USE THE SOLUTION CONTROLS TO RESET 
             THE CRITERION FOR ZERO CHARGE.

  MAXIMUM HALF-INCREMENT FORCE RESIDUAL IS   2.492E-04 AND OCCURS AT NODE        853 INSTANCE CYLINDER-1                                                                      
          TIME INCREMENT MAY NOW INCREASE TO    4.441E-12

 ITERATION SUMMARY FOR THE INCREMENT:   1 TOTAL ITERATIONS, OF WHICH
   0 ARE SEVERE DISCONTINUITY ITERATIONS AND  1 ARE EQUILIBRIUM ITERATIONS.

 TIME INCREMENT COMPLETED  3.553E-12,  FRACTION OF STEP COMPLETED  2.195E-10
 STEP TIME COMPLETED       1.756E-11,  TOTAL TIME COMPLETED        1.756E-11


  INCREMENT    20 STARTS. ATTEMPT NUMBER  1, TIME INCREMENT  4.441E-12

  NUMBER OF EQUATIONS =    13645     NUMBER OF FLOATING PT. OPERATIONS =  2.85E+09

  USING THE DIRECT SOLVER WITH   8 PROCESSORS

     CHECK POINT   START OF SOLVER    

     CHECK POINT  END OF SOLVER       

       ELAPSED USER TIME (SEC)      =   3.5000    
       ELAPSED SYSTEM TIME (SEC)    =   0.0000    
       ELAPSED TOTAL CPU TIME (SEC) =   3.5000    
       ELAPSED WALLCLOCK TIME (SEC) =          0

               CONVERGENCE CHECKS FOR EQUILIBRIUM ITERATION     1


 AVERAGE FORCE                      6.513E+03   TIME AVG. FORCE       6.513E+03
 LARGEST RESIDUAL FORCE             1.455E-09   AT NODE        585   DOF  2
   INSTANCE: PIEZO-1                                                                         
 LARGEST INCREMENT OF DISP.        -3.365E-16   AT NODE         65   DOF  2
   INSTANCE: PIEZO-1                                                                         
 LARGEST CORRECTION TO DISP.        4.467E-25   AT NODE        142   DOF  2
   INSTANCE: PIEZO-1                                                                         
          THE FORCE     EQUILIBRIUM RESPONSE WAS LINEAR IN THIS INCREMENT

 AVERAGE CHARGE                     2.222E-17   TIME AVG. CHARGE      1.000E-02
 LARGEST RESIDUAL CHARGE            1.775E-25   AT NODE        553   DOF  9
   INSTANCE: PIEZO-1                                                                         
 LARGEST INCREMENT OF E. POT.       6.812E-07   AT NODE        598   DOF  9
   INSTANCE: PIEZO-1                                                                         
 LARGEST CORRECTION TO E. POT.     -1.636E-10   AT NODE        598   DOF  9
   INSTANCE: PIEZO-1                                                                         
          THERE IS ZERO CHARGE    EVERYWHERE
 

 ***WARNING: THERE IS ZERO CHARGE EVERYWHERE IN THE MODEL BASED ON THE DEFAULT 
             CRITERION. PLEASE CHECK THE VALUE OF THE AVERAGE CHARGE DURING THE 
             CURRENT ITERATION TO VERIFY THAT THE CHARGE IS SMALL ENOUGH TO BE 
             TREATED AS ZERO. IF NOT, PLEASE USE THE SOLUTION CONTROLS TO RESET 
             THE CRITERION FOR ZERO CHARGE.

  MAXIMUM HALF-INCREMENT FORCE RESIDUAL IS   3.114E-04 AND OCCURS AT NODE       1381 INSTANCE CYLINDER-1                                                                      
          TIME INCREMENT MAY NOW INCREASE TO    5.551E-12

 ITERATION SUMMARY FOR THE INCREMENT:   1 TOTAL ITERATIONS, OF WHICH
   0 ARE SEVERE DISCONTINUITY ITERATIONS AND  1 ARE EQUILIBRIUM ITERATIONS.

 TIME INCREMENT COMPLETED  4.441E-12,  FRACTION OF STEP COMPLETED  2.751E-10
 STEP TIME COMPLETED       2.200E-11,  TOTAL TIME COMPLETED        2.200E-11


  INCREMENT    21 STARTS. ATTEMPT NUMBER  1, TIME INCREMENT  5.551E-12

  NUMBER OF EQUATIONS =    13645     NUMBER OF FLOATING PT. OPERATIONS =  2.85E+09

  USING THE DIRECT SOLVER WITH   8 PROCESSORS

     CHECK POINT   START OF SOLVER    

     CHECK POINT  END OF SOLVER       

       ELAPSED USER TIME (SEC)      =  0.90000    
       ELAPSED SYSTEM TIME (SEC)    =  0.10000    
       ELAPSED TOTAL CPU TIME (SEC) =   1.0000    
       ELAPSED WALLCLOCK TIME (SEC) =          0

               CONVERGENCE CHECKS FOR EQUILIBRIUM ITERATION     1


 AVERAGE FORCE                      6.513E+03   TIME AVG. FORCE       6.513E+03
 LARGEST RESIDUAL FORCE            -1.178E-09   AT NODE        590   DOF  2
   INSTANCE: PIEZO-1                                                                         
 LARGEST INCREMENT OF DISP.        -5.269E-16   AT NODE         65   DOF  2
   INSTANCE: PIEZO-1                                                                         
 LARGEST CORRECTION TO DISP.        1.084E-24   AT NODE        142   DOF  2
   INSTANCE: PIEZO-1                                                                         
          THE FORCE     EQUILIBRIUM RESPONSE WAS LINEAR IN THIS INCREMENT

 AVERAGE CHARGE                     3.484E-17   TIME AVG. CHARGE      1.000E-02
 LARGEST RESIDUAL CHARGE            4.218E-25   AT NODE        400   DOF  9
   INSTANCE: PIEZO-1                                                                         
 LARGEST INCREMENT OF E. POT.       1.067E-06   AT NODE        598   DOF  9
   INSTANCE: PIEZO-1                                                                         
 LARGEST CORRECTION TO E. POT.      3.270E-10   AT NODE        598   DOF  9
   INSTANCE: PIEZO-1                                                                         
          THERE IS ZERO CHARGE    EVERYWHERE
 

 ***WARNING: THERE IS ZERO CHARGE EVERYWHERE IN THE MODEL BASED ON THE DEFAULT 
             CRITERION. PLEASE CHECK THE VALUE OF THE AVERAGE CHARGE DURING THE 
             CURRENT ITERATION TO VERIFY THAT THE CHARGE IS SMALL ENOUGH TO BE 
             TREATED AS ZERO. IF NOT, PLEASE USE THE SOLUTION CONTROLS TO RESET 
             THE CRITERION FOR ZERO CHARGE.

  MAXIMUM HALF-INCREMENT FORCE RESIDUAL IS   3.892E-04 AND OCCURS AT NODE       1381 INSTANCE CYLINDER-1                                                                      
          TIME INCREMENT MAY NOW INCREASE TO    6.939E-12

 ITERATION SUMMARY FOR THE INCREMENT:   1 TOTAL ITERATIONS, OF WHICH
   0 ARE SEVERE DISCONTINUITY ITERATIONS AND  1 ARE EQUILIBRIUM ITERATIONS.

 TIME INCREMENT COMPLETED  5.551E-12,  FRACTION OF STEP COMPLETED  3.444E-10
 STEP TIME COMPLETED       2.756E-11,  TOTAL TIME COMPLETED        2.756E-11


  INCREMENT    22 STARTS. ATTEMPT NUMBER  1, TIME INCREMENT  6.939E-12

  NUMBER OF EQUATIONS =    13645     NUMBER OF FLOATING PT. OPERATIONS =  2.85E+09

  USING THE DIRECT SOLVER WITH   8 PROCESSORS

     CHECK POINT   START OF SOLVER    

     CHECK POINT  END OF SOLVER       

       ELAPSED USER TIME (SEC)      =   1.0000    
       ELAPSED SYSTEM TIME (SEC)    =   0.0000    
       ELAPSED TOTAL CPU TIME (SEC) =   1.0000    
       ELAPSED WALLCLOCK TIME (SEC) =          0

               CONVERGENCE CHECKS FOR EQUILIBRIUM ITERATION     1


 AVERAGE FORCE                      6.513E+03   TIME AVG. FORCE       6.513E+03
 LARGEST RESIDUAL FORCE            -1.396E-09   AT NODE        392   DOF  2
   INSTANCE: PIEZO-1                                                                         
 LARGEST INCREMENT OF DISP.        -8.246E-16   AT NODE         65   DOF  2
   INSTANCE: PIEZO-1                                                                         
 LARGEST CORRECTION TO DISP.        2.632E-24   AT NODE        146   DOF  2
   INSTANCE: PIEZO-1                                                                         
          THE FORCE     EQUILIBRIUM RESPONSE WAS LINEAR IN THIS INCREMENT

 AVERAGE CHARGE                     5.460E-17   TIME AVG. CHARGE      1.000E-02
 LARGEST RESIDUAL CHARGE            1.007E-24   AT NODE        532   DOF  9
   INSTANCE: PIEZO-1                                                                         
 LARGEST INCREMENT OF E. POT.       1.669E-06   AT NODE        598   DOF  9
   INSTANCE: PIEZO-1                                                                         
 LARGEST CORRECTION TO E. POT.     -5.612E-10   AT NODE        598   DOF  9
   INSTANCE: PIEZO-1                                                                         
          THERE IS ZERO CHARGE    EVERYWHERE
 

 ***WARNING: THERE IS ZERO CHARGE EVERYWHERE IN THE MODEL BASED ON THE DEFAULT 
             CRITERION. PLEASE CHECK THE VALUE OF THE AVERAGE CHARGE DURING THE 
             CURRENT ITERATION TO VERIFY THAT THE CHARGE IS SMALL ENOUGH TO BE 
             TREATED AS ZERO. IF NOT, PLEASE USE THE SOLUTION CONTROLS TO RESET 
             THE CRITERION FOR ZERO CHARGE.

  MAXIMUM HALF-INCREMENT FORCE RESIDUAL IS   4.863E-04 AND OCCURS AT NODE        854 INSTANCE CYLINDER-1                                                                      
          TIME INCREMENT MAY NOW INCREASE TO    8.674E-12

 ITERATION SUMMARY FOR THE INCREMENT:   1 TOTAL ITERATIONS, OF WHICH
   0 ARE SEVERE DISCONTINUITY ITERATIONS AND  1 ARE EQUILIBRIUM ITERATIONS.

 TIME INCREMENT COMPLETED  6.939E-12,  FRACTION OF STEP COMPLETED  4.312E-10
 STEP TIME COMPLETED       3.449E-11,  TOTAL TIME COMPLETED        3.449E-11


  INCREMENT    23 STARTS. ATTEMPT NUMBER  1, TIME INCREMENT  8.674E-12

  NUMBER OF EQUATIONS =    13645     NUMBER OF FLOATING PT. OPERATIONS =  2.85E+09

  USING THE DIRECT SOLVER WITH   8 PROCESSORS

     CHECK POINT   START OF SOLVER    

     CHECK POINT  END OF SOLVER       

       ELAPSED USER TIME (SEC)      =   1.0000    
       ELAPSED SYSTEM TIME (SEC)    =   0.0000    
       ELAPSED TOTAL CPU TIME (SEC) =   1.0000    
       ELAPSED WALLCLOCK TIME (SEC) =          0

               CONVERGENCE CHECKS FOR EQUILIBRIUM ITERATION     1


 AVERAGE FORCE                      6.513E+03   TIME AVG. FORCE       6.513E+03
 LARGEST RESIDUAL FORCE             1.257E-09   AT NODE        580   DOF  2
   INSTANCE: PIEZO-1                                                                         
 LARGEST INCREMENT OF DISP.        -1.290E-15   AT NODE         65   DOF  2
   INSTANCE: PIEZO-1                                                                         
 LARGEST CORRECTION TO DISP.        6.398E-24   AT NODE        142   DOF  2
   INSTANCE: PIEZO-1                                                                         
          THE FORCE     EQUILIBRIUM RESPONSE WAS LINEAR IN THIS INCREMENT

 AVERAGE CHARGE                     8.551E-17   TIME AVG. CHARGE      1.000E-02
 LARGEST RESIDUAL CHARGE            2.416E-24   AT NODE        411   DOF  9
   INSTANCE: PIEZO-1                                                                         
 LARGEST INCREMENT OF E. POT.       2.612E-06   AT NODE        598   DOF  9
   INSTANCE: PIEZO-1                                                                         
 LARGEST CORRECTION TO E. POT.      8.894E-10   AT NODE        598   DOF  9
   INSTANCE: PIEZO-1                                                                         
          THERE IS ZERO CHARGE    EVERYWHERE
 

 ***WARNING: THERE IS ZERO CHARGE EVERYWHERE IN THE MODEL BASED ON THE DEFAULT 
             CRITERION. PLEASE CHECK THE VALUE OF THE AVERAGE CHARGE DURING THE 
             CURRENT ITERATION TO VERIFY THAT THE CHARGE IS SMALL ENOUGH TO BE 
             TREATED AS ZERO. IF NOT, PLEASE USE THE SOLUTION CONTROLS TO RESET 
             THE CRITERION FOR ZERO CHARGE.

  MAXIMUM HALF-INCREMENT FORCE RESIDUAL IS   6.076E-04 AND OCCURS AT NODE       1381 INSTANCE CYLINDER-1                                                                      
          TIME INCREMENT MAY NOW INCREASE TO    1.084E-11

 ITERATION SUMMARY FOR THE INCREMENT:   1 TOTAL ITERATIONS, OF WHICH
   0 ARE SEVERE DISCONTINUITY ITERATIONS AND  1 ARE EQUILIBRIUM ITERATIONS.

 TIME INCREMENT COMPLETED  8.674E-12,  FRACTION OF STEP COMPLETED  5.396E-10
 STEP TIME COMPLETED       4.317E-11,  TOTAL TIME COMPLETED        4.317E-11


  INCREMENT    24 STARTS. ATTEMPT NUMBER  1, TIME INCREMENT  1.084E-11

  NUMBER OF EQUATIONS =    13645     NUMBER OF FLOATING PT. OPERATIONS =  2.85E+09

  USING THE DIRECT SOLVER WITH   8 PROCESSORS

     CHECK POINT   START OF SOLVER    

     CHECK POINT  END OF SOLVER       

       ELAPSED USER TIME (SEC)      =  0.90000    
       ELAPSED SYSTEM TIME (SEC)    =   0.0000    
       ELAPSED TOTAL CPU TIME (SEC) =  0.90000    
       ELAPSED WALLCLOCK TIME (SEC) =          0

               CONVERGENCE CHECKS FOR EQUILIBRIUM ITERATION     1


 AVERAGE FORCE                      6.513E+03   TIME AVG. FORCE       6.513E+03
 LARGEST RESIDUAL FORCE            -1.957E-09   AT NODE        325   DOF  2
   INSTANCE: PIEZO-1                                                                         
 LARGEST INCREMENT OF DISP.        -2.018E-15   AT NODE         65   DOF  2
   INSTANCE: PIEZO-1                                                                         
 LARGEST CORRECTION TO DISP.       -1.557E-23   AT NODE        598   DOF  2
   INSTANCE: PIEZO-1                                                                         
          THE FORCE     EQUILIBRIUM RESPONSE WAS LINEAR IN THIS INCREMENT

 AVERAGE CHARGE                     1.339E-16   TIME AVG. CHARGE      1.000E-02
 LARGEST RESIDUAL CHARGE            5.813E-24   AT NODE        477   DOF  9
   INSTANCE: PIEZO-1                                                                         
 LARGEST INCREMENT OF E. POT.       4.085E-06   AT NODE        598   DOF  9
   INSTANCE: PIEZO-1                                                                         
 LARGEST CORRECTION TO E. POT.     -1.341E-09   AT NODE        598   DOF  9
   INSTANCE: PIEZO-1                                                                         
          THERE IS ZERO CHARGE    EVERYWHERE
 

 ***WARNING: THERE IS ZERO CHARGE EVERYWHERE IN THE MODEL BASED ON THE DEFAULT 
             CRITERION. PLEASE CHECK THE VALUE OF THE AVERAGE CHARGE DURING THE 
             CURRENT ITERATION TO VERIFY THAT THE CHARGE IS SMALL ENOUGH TO BE 
             TREATED AS ZERO. IF NOT, PLEASE USE THE SOLUTION CONTROLS TO RESET 
             THE CRITERION FOR ZERO CHARGE.

  MAXIMUM HALF-INCREMENT FORCE RESIDUAL IS   7.591E-04 AND OCCURS AT NODE        853 INSTANCE CYLINDER-1                                                                      
          TIME INCREMENT MAY NOW INCREASE TO    1.355E-11

 ITERATION SUMMARY FOR THE INCREMENT:   1 TOTAL ITERATIONS, OF WHICH
   0 ARE SEVERE DISCONTINUITY ITERATIONS AND  1 ARE EQUILIBRIUM ITERATIONS.

 TIME INCREMENT COMPLETED  1.084E-11,  FRACTION OF STEP COMPLETED  6.751E-10
 STEP TIME COMPLETED       5.401E-11,  TOTAL TIME COMPLETED        5.401E-11


  INCREMENT    25 STARTS. ATTEMPT NUMBER  1, TIME INCREMENT  1.355E-11

  NUMBER OF EQUATIONS =    13645     NUMBER OF FLOATING PT. OPERATIONS =  2.85E+09

  USING THE DIRECT SOLVER WITH   8 PROCESSORS

     CHECK POINT   START OF SOLVER    

     CHECK POINT  END OF SOLVER       

       ELAPSED USER TIME (SEC)      =  0.90000    
       ELAPSED SYSTEM TIME (SEC)    =   0.0000    
       ELAPSED TOTAL CPU TIME (SEC) =  0.90000    
       ELAPSED WALLCLOCK TIME (SEC) =          0

               CONVERGENCE CHECKS FOR EQUILIBRIUM ITERATION     1


 AVERAGE FORCE                      6.513E+03   TIME AVG. FORCE       6.513E+03
 LARGEST RESIDUAL FORCE            -2.158E-09   AT NODE        392   DOF  2
   INSTANCE: PIEZO-1                                                                         
 LARGEST INCREMENT OF DISP.        -3.155E-15   AT NODE         65   DOF  2
   INSTANCE: PIEZO-1                                                                         
 LARGEST CORRECTION TO DISP.       -3.795E-23   AT NODE        598   DOF  2
   INSTANCE: PIEZO-1                                                                         
          THE FORCE     EQUILIBRIUM RESPONSE WAS LINEAR IN THIS INCREMENT

 AVERAGE CHARGE                     2.095E-16   TIME AVG. CHARGE      1.000E-02
 LARGEST RESIDUAL CHARGE            1.403E-23   AT NODE        477   DOF  9
   INSTANCE: PIEZO-1                                                                         
 LARGEST INCREMENT OF E. POT.       6.388E-06   AT NODE        598   DOF  9
   INSTANCE: PIEZO-1                                                                         
 LARGEST CORRECTION TO E. POT.      1.952E-09   AT NODE        598   DOF  9
   INSTANCE: PIEZO-1                                                                         
          THERE IS ZERO CHARGE    EVERYWHERE
 

 ***WARNING: THERE IS ZERO CHARGE EVERYWHERE IN THE MODEL BASED ON THE DEFAULT 
             CRITERION. PLEASE CHECK THE VALUE OF THE AVERAGE CHARGE DURING THE 
             CURRENT ITERATION TO VERIFY THAT THE CHARGE IS SMALL ENOUGH TO BE 
             TREATED AS ZERO. IF NOT, PLEASE USE THE SOLUTION CONTROLS TO RESET 
             THE CRITERION FOR ZERO CHARGE.

  MAXIMUM HALF-INCREMENT FORCE RESIDUAL IS   9.483E-04 AND OCCURS AT NODE        854 INSTANCE CYLINDER-1                                                                      
          TIME INCREMENT MAY NOW INCREASE TO    1.694E-11

 ITERATION SUMMARY FOR THE INCREMENT:   1 TOTAL ITERATIONS, OF WHICH
   0 ARE SEVERE DISCONTINUITY ITERATIONS AND  1 ARE EQUILIBRIUM ITERATIONS.

 TIME INCREMENT COMPLETED  1.355E-11,  FRACTION OF STEP COMPLETED  8.445E-10
 STEP TIME COMPLETED       6.756E-11,  TOTAL TIME COMPLETED        6.756E-11


  INCREMENT    26 STARTS. ATTEMPT NUMBER  1, TIME INCREMENT  1.694E-11

  NUMBER OF EQUATIONS =    13645     NUMBER OF FLOATING PT. OPERATIONS =  2.85E+09

  USING THE DIRECT SOLVER WITH   8 PROCESSORS

     CHECK POINT   START OF SOLVER    

     CHECK POINT  END OF SOLVER       

       ELAPSED USER TIME (SEC)      =  0.90000    
       ELAPSED SYSTEM TIME (SEC)    =   0.0000    
       ELAPSED TOTAL CPU TIME (SEC) =  0.90000    
       ELAPSED WALLCLOCK TIME (SEC) =          0

               CONVERGENCE CHECKS FOR EQUILIBRIUM ITERATION     1


 AVERAGE FORCE                      6.513E+03   TIME AVG. FORCE       6.513E+03
 LARGEST RESIDUAL FORCE            -1.367E-09   AT NODE        341   DOF  2
   INSTANCE: PIEZO-1                                                                         
 LARGEST INCREMENT OF DISP.        -4.934E-15   AT NODE         65   DOF  2
[...]
          THE FORCE     EQUILIBRIUM RESPONSE WAS LINEAR IN THIS INCREMENT

 AVERAGE CHARGE                     4.062E-08   TIME AVG. CHARGE      1.000E-02
 LARGEST RESIDUAL CHARGE           -1.546E-07   AT NODE        144   DOF  9
   INSTANCE: PIEZO-1                                                                         
 LARGEST INCREMENT OF E. POT.      -2.457E+03   AT NODE        347   DOF  9
   INSTANCE: SENSOR-1                                                                        
 LARGEST CORRECTION TO E. POT.     -2.080E+04   AT NODE        143   DOF  9
   INSTANCE: PIEZO-1                                                                         
          THE CHARGE    IS ZERO EVERYWHERE BUT THE CHARGE    RESIDUAL OR
          THE E. POT.  CORRECTION IS NON-ZERO

  NUMBER OF EQUATIONS =    13645     NUMBER OF FLOATING PT. OPERATIONS =  2.85E+09

  USING THE DIRECT SOLVER WITH   8 PROCESSORS

     CHECK POINT   START OF SOLVER    

     CHECK POINT  END OF SOLVER       

       ELAPSED USER TIME (SEC)      =  0.90000    
       ELAPSED SYSTEM TIME (SEC)    =   0.0000    
       ELAPSED TOTAL CPU TIME (SEC) =  0.90000    
       ELAPSED WALLCLOCK TIME (SEC) =          0

               CONVERGENCE CHECKS FOR EQUILIBRIUM ITERATION     2


 AVERAGE FORCE                      6.187E+03   TIME AVG. FORCE       5.145E+03
 LARGEST RESIDUAL FORCE             4.867E-09   AT NODE        213   DOF  2
   INSTANCE: CYLINDER-1                                                                      
 LARGEST INCREMENT OF DISP.        -1.711E-04   AT NODE        394   DOF  2
   INSTANCE: CYLINDER-1                                                                      
 LARGEST CORRECTION TO DISP.       -1.136E-07   AT NODE          1   DOF  2
   INSTANCE: SENSOR-1                                                                        
          THE FORCE     EQUILIBRIUM EQUATIONS HAVE CONVERGED

 AVERAGE CHARGE                     3.692E-08   TIME AVG. CHARGE      1.000E-02
 LARGEST RESIDUAL CHARGE            1.743E-09   AT NODE        272   DOF  9
   INSTANCE: SENSOR-1                                                                        
 LARGEST INCREMENT OF E. POT.      -2.383E+03   AT NODE        347   DOF  9
   INSTANCE: SENSOR-1                                                                        
 LARGEST CORRECTION TO E. POT.       622.       AT NODE          1   DOF  9
   INSTANCE: SENSOR-1                                                                        
          THERE IS ZERO CHARGE    EVERYWHERE
 

 ***WARNING: THERE IS ZERO CHARGE EVERYWHERE IN THE MODEL BASED ON THE DEFAULT 
             CRITERION. PLEASE CHECK THE VALUE OF THE AVERAGE CHARGE DURING THE 
             CURRENT ITERATION TO VERIFY THAT THE CHARGE IS SMALL ENOUGH TO BE 
             TREATED AS ZERO. IF NOT, PLEASE USE THE SOLUTION CONTROLS TO RESET 
             THE CRITERION FOR ZERO CHARGE.

  MAXIMUM HALF-INCREMENT FORCE RESIDUAL IS  -6.616E+05 AND OCCURS AT NODE       2051 INSTANCE CYLINDER-1                                                                      
          TIME INCREMENT MAY NOW INCREASE TO    1.105E-05

 ITERATION SUMMARY FOR THE INCREMENT:   2 TOTAL ITERATIONS, OF WHICH
   0 ARE SEVERE DISCONTINUITY ITERATIONS AND  2 ARE EQUILIBRIUM ITERATIONS.

 TIME INCREMENT COMPLETED  8.843E-06,  FRACTION OF STEP COMPLETED  5.527E-04
 STEP TIME COMPLETED       4.422E-05,  TOTAL TIME COMPLETED        4.422E-05


  INCREMENT    86 STARTS. ATTEMPT NUMBER  1, TIME INCREMENT  1.105E-05

  NUMBER OF EQUATIONS =    13645     NUMBER OF FLOATING PT. OPERATIONS =  2.85E+09

  USING THE DIRECT SOLVER WITH   8 PROCESSORS

     CHECK POINT   START OF SOLVER    

     CHECK POINT  END OF SOLVER       

       ELAPSED USER TIME (SEC)      =   1.5000    
       ELAPSED SYSTEM TIME (SEC)    =   0.0000    
       ELAPSED TOTAL CPU TIME (SEC) =   1.5000    
       ELAPSED WALLCLOCK TIME (SEC) =          0

               CONVERGENCE CHECKS FOR EQUILIBRIUM ITERATION     1


 AVERAGE FORCE                      7.810E+03   TIME AVG. FORCE       5.176E+03
 LARGEST RESIDUAL FORCE            -7.198E-09   AT NODE        772   DOF  2
   INSTANCE: CYLINDER-1                                                                      
 LARGEST INCREMENT OF DISP.        -2.601E-04   AT NODE        309   DOF  2
   INSTANCE: CYLINDER-1                                                                      
 LARGEST CORRECTION TO DISP.       -3.282E-05   AT NODE        238   DOF  2
   INSTANCE: PIEZO-1                                                                         
          THE FORCE     EQUILIBRIUM RESPONSE WAS LINEAR IN THIS INCREMENT

 AVERAGE CHARGE                     6.830E-08   TIME AVG. CHARGE      1.000E-02
 LARGEST RESIDUAL CHARGE            2.046E-07   AT NODE        145   DOF  9
   INSTANCE: PIEZO-1                                                                         
 LARGEST INCREMENT OF E. POT.      -5.447E+03   AT NODE        431   DOF  9
   INSTANCE: SENSOR-1                                                                        
 LARGEST CORRECTION TO E. POT.      2.542E+04   AT NODE        143   DOF  9
   INSTANCE: PIEZO-1                                                                         
          THE CHARGE    IS ZERO EVERYWHERE BUT THE CHARGE    RESIDUAL OR
          THE E. POT.  CORRECTION IS NON-ZERO

  NUMBER OF EQUATIONS =    13645     NUMBER OF FLOATING PT. OPERATIONS =  2.85E+09

  USING THE DIRECT SOLVER WITH   8 PROCESSORS

     CHECK POINT   START OF SOLVER    

     CHECK POINT  END OF SOLVER       

       ELAPSED USER TIME (SEC)      =   1.0000    
       ELAPSED SYSTEM TIME (SEC)    =   0.0000    
       ELAPSED TOTAL CPU TIME (SEC) =   1.0000    
       ELAPSED WALLCLOCK TIME (SEC) =          1

               CONVERGENCE CHECKS FOR EQUILIBRIUM ITERATION     2


 AVERAGE FORCE                      7.810E+03   TIME AVG. FORCE       5.176E+03
 LARGEST RESIDUAL FORCE            -4.462E-09   AT NODE        367   DOF  2
   INSTANCE: PIEZO-1                                                                         
 LARGEST INCREMENT OF DISP.        -2.601E-04   AT NODE        309   DOF  2
   INSTANCE: CYLINDER-1                                                                      
 LARGEST CORRECTION TO DISP.        1.771E-07   AT NODE         61   DOF  2
   INSTANCE: SENSOR-1                                                                        
          THE FORCE     EQUILIBRIUM EQUATIONS HAVE CONVERGED

 AVERAGE CHARGE                     5.971E-08   TIME AVG. CHARGE      1.000E-02
 LARGEST RESIDUAL CHARGE           -1.903E-09   AT NODE        538   DOF  9
   INSTANCE: SENSOR-1                                                                        
 LARGEST INCREMENT OF E. POT.      -5.714E+03   AT NODE        431   DOF  9
   INSTANCE: SENSOR-1                                                                        
 LARGEST CORRECTION TO E. POT.     -1.034E+03   AT NODE          1   DOF  9
   INSTANCE: SENSOR-1                                                                        
          THERE IS ZERO CHARGE    EVERYWHERE
 

 ***WARNING: THERE IS ZERO CHARGE EVERYWHERE IN THE MODEL BASED ON THE DEFAULT 
             CRITERION. PLEASE CHECK THE VALUE OF THE AVERAGE CHARGE DURING THE 
             CURRENT ITERATION TO VERIFY THAT THE CHARGE IS SMALL ENOUGH TO BE 
             TREATED AS ZERO. IF NOT, PLEASE USE THE SOLUTION CONTROLS TO RESET 
             THE CRITERION FOR ZERO CHARGE.

  MAXIMUM HALF-INCREMENT FORCE RESIDUAL IS   9.378E+05 AND OCCURS AT NODE       1762 INSTANCE CYLINDER-1                                                                      
          TIME INCREMENT MAY NOW INCREASE TO    1.382E-05

 ITERATION SUMMARY FOR THE INCREMENT:   2 TOTAL ITERATIONS, OF WHICH
   0 ARE SEVERE DISCONTINUITY ITERATIONS AND  2 ARE EQUILIBRIUM ITERATIONS.

 TIME INCREMENT COMPLETED  1.105E-05,  FRACTION OF STEP COMPLETED  6.909E-04
 STEP TIME COMPLETED       5.527E-05,  TOTAL TIME COMPLETED        5.527E-05


  INCREMENT    87 STARTS. ATTEMPT NUMBER  1, TIME INCREMENT  1.382E-05

  NUMBER OF EQUATIONS =    13645     NUMBER OF FLOATING PT. OPERATIONS =  2.85E+09

  USING THE DIRECT SOLVER WITH   8 PROCESSORS

     CHECK POINT   START OF SOLVER    

     CHECK POINT  END OF SOLVER       

       ELAPSED USER TIME (SEC)      =   1.6000    
       ELAPSED SYSTEM TIME (SEC)    =  0.10000    
       ELAPSED TOTAL CPU TIME (SEC) =   1.7000    
       ELAPSED WALLCLOCK TIME (SEC) =          1

               CONVERGENCE CHECKS FOR EQUILIBRIUM ITERATION     1


 AVERAGE FORCE                      9.225E+03   TIME AVG. FORCE       5.222E+03
 LARGEST RESIDUAL FORCE             1.537E-08   AT NODE        210   DOF  2
   INSTANCE: CYLINDER-1                                                                      
 LARGEST INCREMENT OF DISP.        -4.077E-04   AT NODE       1690   DOF  2
   INSTANCE: CYLINDER-1                                                                      
 LARGEST CORRECTION TO DISP.        7.875E-05   AT NODE         89   DOF  2
   INSTANCE: CYLINDER-1                                                                      
          THE FORCE     EQUILIBRIUM RESPONSE WAS LINEAR IN THIS INCREMENT

 AVERAGE CHARGE                     9.739E-08   TIME AVG. CHARGE      1.000E-02
 LARGEST RESIDUAL CHARGE            2.928E-07   AT NODE         74   DOF  9
   INSTANCE: SENSOR-1                                                                        
 LARGEST INCREMENT OF E. POT.      -5.677E+03   AT NODE        464   DOF  9
   INSTANCE: SENSOR-1                                                                        
 LARGEST CORRECTION TO E. POT.     -3.069E+04   AT NODE        136   DOF  9
   INSTANCE: PIEZO-1                                                                         
          THE CHARGE    IS ZERO EVERYWHERE BUT THE CHARGE    RESIDUAL OR
          THE E. POT.  CORRECTION IS NON-ZERO

  NUMBER OF EQUATIONS =    13645     NUMBER OF FLOATING PT. OPERATIONS =  2.85E+09

  USING THE DIRECT SOLVER WITH   8 PROCESSORS

     CHECK POINT   START OF SOLVER    

     CHECK POINT  END OF SOLVER       

       ELAPSED USER TIME (SEC)      =   1.0000    
       ELAPSED SYSTEM TIME (SEC)    =  0.10000    
       ELAPSED TOTAL CPU TIME (SEC) =   1.1000    
       ELAPSED WALLCLOCK TIME (SEC) =          0

               CONVERGENCE CHECKS FOR EQUILIBRIUM ITERATION     2


 AVERAGE FORCE                      9.224E+03   TIME AVG. FORCE       5.222E+03
 LARGEST RESIDUAL FORCE            -7.495E-09   AT NODE        472   DOF  2
   INSTANCE: PIEZO-1                                                                         
 LARGEST INCREMENT OF DISP.        -4.077E-04   AT NODE       1690   DOF  2
   INSTANCE: CYLINDER-1                                                                      
 LARGEST CORRECTION TO DISP.       -2.273E-07   AT NODE         61   DOF  2
   INSTANCE: SENSOR-1                                                                        
          THE FORCE     EQUILIBRIUM EQUATIONS HAVE CONVERGED

 AVERAGE CHARGE                     8.664E-08   TIME AVG. CHARGE      1.000E-02
 LARGEST RESIDUAL CHARGE           -3.020E-09   AT NODE         74   DOF  9
   INSTANCE: SENSOR-1                                                                        
 LARGEST INCREMENT OF E. POT.      -5.124E+03   AT NODE        380   DOF  9
   INSTANCE: SENSOR-1                                                                        
 LARGEST CORRECTION TO E. POT.      1.357E+03   AT NODE         61   DOF  9
   INSTANCE: SENSOR-1                                                                        
          THERE IS ZERO CHARGE    EVERYWHERE
 

 ***WARNING: THERE IS ZERO CHARGE EVERYWHERE IN THE MODEL BASED ON THE DEFAULT 
             CRITERION. PLEASE CHECK THE VALUE OF THE AVERAGE CHARGE DURING THE 
             CURRENT ITERATION TO VERIFY THAT THE CHARGE IS SMALL ENOUGH TO BE 
             TREATED AS ZERO. IF NOT, PLEASE USE THE SOLUTION CONTROLS TO RESET 
             THE CRITERION FOR ZERO CHARGE.

  MAXIMUM HALF-INCREMENT FORCE RESIDUAL IS  -1.327E+06 AND OCCURS AT NODE       1762 INSTANCE CYLINDER-1                                                                      
          TIME INCREMENT MAY NOW INCREASE TO    1.727E-05

 ITERATION SUMMARY FOR THE INCREMENT:   2 TOTAL ITERATIONS, OF WHICH
   0 ARE SEVERE DISCONTINUITY ITERATIONS AND  2 ARE EQUILIBRIUM ITERATIONS.

 TIME INCREMENT COMPLETED  1.382E-05,  FRACTION OF STEP COMPLETED  8.636E-04
 STEP TIME COMPLETED       6.909E-05,  TOTAL TIME COMPLETED        6.909E-05


  INCREMENT    88 STARTS. ATTEMPT NUMBER  1, TIME INCREMENT  1.727E-05

  NUMBER OF EQUATIONS =    13645     NUMBER OF FLOATING PT. OPERATIONS =  2.85E+09

  USING THE DIRECT SOLVER WITH   8 PROCESSORS

     CHECK POINT   START OF SOLVER    

     CHECK POINT  END OF SOLVER       

       ELAPSED USER TIME (SEC)      =  0.90000    
       ELAPSED SYSTEM TIME (SEC)    =   0.0000    
       ELAPSED TOTAL CPU TIME (SEC) =  0.90000    
       ELAPSED WALLCLOCK TIME (SEC) =          0

               CONVERGENCE CHECKS FOR EQUILIBRIUM ITERATION     1


 AVERAGE FORCE                      1.058E+04   TIME AVG. FORCE       5.283E+03
 LARGEST RESIDUAL FORCE            -1.174E-08   AT NODE        783   DOF  2
   INSTANCE: SENSOR-1                                                                        
 LARGEST INCREMENT OF DISP.        -6.336E-04   AT NODE       1482   DOF  2
   INSTANCE: CYLINDER-1                                                                      
 LARGEST CORRECTION TO DISP.        8.815E-05   AT NODE       1484   DOF  2
   INSTANCE: CYLINDER-1                                                                      
          THE FORCE     EQUILIBRIUM RESPONSE WAS LINEAR IN THIS INCREMENT

 AVERAGE CHARGE                     1.456E-07   TIME AVG. CHARGE      1.456E-07
 LARGEST RESIDUAL CHARGE           -4.516E-07   AT NODE         74   DOF  9
   INSTANCE: SENSOR-1                                                                        
 LARGEST INCREMENT OF E. POT.      -9.853E+03   AT NODE          8   DOF  9
   INSTANCE: SENSOR-1                                                                        
 LARGEST CORRECTION TO E. POT.      3.685E+04   AT NODE        115   DOF  9
   INSTANCE: PIEZO-1                                                                         
          CHARGE    EQUILIBRIUM NOT ACHIEVED WITHIN TOLERANCE.

  NUMBER OF EQUATIONS =    13645     NUMBER OF FLOATING PT. OPERATIONS =  2.85E+09

  USING THE DIRECT SOLVER WITH   8 PROCESSORS

     CHECK POINT   START OF SOLVER    

     CHECK POINT  END OF SOLVER       

       ELAPSED USER TIME (SEC)      =   1.0000    
       ELAPSED SYSTEM TIME (SEC)    =   0.0000    
       ELAPSED TOTAL CPU TIME (SEC) =   1.0000    
       ELAPSED WALLCLOCK TIME (SEC) =          0

               CONVERGENCE CHECKS FOR EQUILIBRIUM ITERATION     2


 AVERAGE FORCE                      1.058E+04   TIME AVG. FORCE       5.283E+03
 LARGEST RESIDUAL FORCE             8.812E-09   AT NODE        947   DOF  2
   INSTANCE: PIEZO-1                                                                         
 LARGEST INCREMENT OF DISP.        -6.336E-04   AT NODE       1482   DOF  2
   INSTANCE: CYLINDER-1                                                                      
 LARGEST CORRECTION TO DISP.        2.834E-07   AT NODE         61   DOF  2
   INSTANCE: SENSOR-1                                                                        
          THE FORCE     EQUILIBRIUM EQUATIONS HAVE CONVERGED

 AVERAGE CHARGE                     1.192E-07   TIME AVG. CHARGE      1.192E-07
 LARGEST RESIDUAL CHARGE            4.667E-09   AT NODE         74   DOF  9
   INSTANCE: SENSOR-1                                                                        
 LARGEST INCREMENT OF E. POT.      -9.879E+03   AT NODE          8   DOF  9
   INSTANCE: SENSOR-1                                                                        
 LARGEST CORRECTION TO E. POT.     -1.708E+03   AT NODE         61   DOF  9
   INSTANCE: SENSOR-1                                                                        
          CHARGE    EQUILIBRIUM NOT ACHIEVED WITHIN TOLERANCE.

  NUMBER OF EQUATIONS =    13645     NUMBER OF FLOATING PT. OPERATIONS =  2.85E+09

  USING THE DIRECT SOLVER WITH   8 PROCESSORS

     CHECK POINT   START OF SOLVER    

     CHECK POINT  END OF SOLVER       

       ELAPSED USER TIME (SEC)      =  0.90000    
       ELAPSED SYSTEM TIME (SEC)    =   0.0000    
       ELAPSED TOTAL CPU TIME (SEC) =  0.90000    
       ELAPSED WALLCLOCK TIME (SEC) =          0

               CONVERGENCE CHECKS FOR EQUILIBRIUM ITERATION     3


 AVERAGE FORCE                      1.058E+04   TIME AVG. FORCE       5.283E+03
 LARGEST RESIDUAL FORCE            -1.117E-08   AT NODE        759   DOF  2
   INSTANCE: SENSOR-1                                                                        
 LARGEST INCREMENT OF DISP.        -6.336E-04   AT NODE       1482   DOF  2
   INSTANCE: CYLINDER-1                                                                      
 LARGEST CORRECTION TO DISP.       -5.109E-09   AT NODE         61   DOF  2
   INSTANCE: SENSOR-1                                                                        
          THE FORCE     EQUILIBRIUM EQUATIONS HAVE CONVERGED

 AVERAGE CHARGE                     1.192E-07   TIME AVG. CHARGE      1.192E-07
 LARGEST RESIDUAL CHARGE            6.672E-11   AT NODE        543   DOF  9
   INSTANCE: SENSOR-1                                                                        
 LARGEST INCREMENT OF E. POT.      -9.883E+03   AT NODE          8   DOF  9
   INSTANCE: SENSOR-1                                                                        
 LARGEST CORRECTION TO E. POT.       29.6       AT NODE         61   DOF  9
   INSTANCE: SENSOR-1                                                                        
          THE CHARGE    EQUILIBRIUM EQUATIONS HAVE CONVERGED

  MAXIMUM HALF-INCREMENT FORCE RESIDUAL IS   1.778E+06 AND OCCURS AT NODE       1762 INSTANCE CYLINDER-1                                                                      
          TIME INCREMENT MAY NOW INCREASE TO    2.159E-05

 ***ERROR: Process terminated by external request (SIGTERM or SIGINT received).



     ANALYSIS SUMMARY:
     TOTAL OF         88  INCREMENTS
                       0  CUTBACKS IN AUTOMATIC INCREMENTATION
                      98  ITERATIONS INCLUDING CONTACT ITERATIONS IF PRESENT
                     100  PASSES THROUGH THE EQUATION SOLVER OF WHICH 
                      99  INVOLVE MATRIX DECOMPOSITION, INCLUDING
                       2  DECOMPOSITION(S) OF THE MASS MATRIX
                       1  REORDERING OF EQUATIONS TO MINIMIZE WAVEFRONT
                       0  ADDITIONAL RESIDUAL EVALUATIONS FOR LINE SEARCHES
                       0  ADDITIONAL OPERATOR EVALUATIONS FOR LINE SEARCHES
                      13  WARNING MESSAGES DURING USER INPUT PROCESSING
                      87  WARNING MESSAGES DURING ANALYSIS
                       0  ANALYSIS WARNINGS ARE NUMERICAL PROBLEM MESSAGES
                       0  ANALYSIS WARNINGS ARE NEGATIVE EIGENVALUE MESSAGES
                       1  ERROR MESSAGES



     JOB TIME SUMMARY
       USER TIME (SEC)      =   352.10    
       SYSTEM TIME (SEC)    =   216.60    
       TOTAL CPU TIME (SEC) =   568.70    
       WALLCLOCK TIME (SEC) =         96
