*Heading
** Job name: openloop_step Model name: Cylindrical Panel
** Generated by: Abaqus/CAE 6.13-1
*Preprint, echo=NO, model=NO, history=NO, contact=NO
**
** PARTS
**
*Part, name=Cylinder
*End Part
**  
*Part, name=Piezo
*End Part
**  
*Part, name=Sensor
*End Part
**  
**
** ASSEMBLY
**
*Assembly, name=Assembly
**  
*Instance, name=Cylinder-1, part=Cylinder
*Node
      1, -0.0522642322,  0.497260958,  0.200000003
      2, -0.154508501,   0.47552827,  0.200000003
      3, -0.154508501,   0.47552827,           0.
      4, -0.0522642322,  0.497260958,           0.
      5, -0.163779005,   0.50405997,  0.200000003
      6, -0.163779005,   0.50405997,           0.
      7, -0.0554000847,  0.527096629,           0.
      8, -0.0554000847,  0.527096629,  0.200000003
      9, -0.0522642322,  0.497260958,  0.400000006
     10, -0.154508501,   0.47552827,  0.400000006
     11, -0.0554000847,  0.527096629,  0.400000006
     12, -0.163779005,   0.50405997,  0.400000006
     13, -0.0522642322,  0.497260958,  0.600000024
     14, -0.154508501,   0.47552827,  0.600000024
     15, -0.0554000847,  0.527096629,  0.600000024
     16, -0.163779005,   0.50405997,  0.600000024
     17, -0.163779005,   0.50405997,  0.800000012
     18, -0.0554000847,  0.527096629,  0.800000012
     19, -0.154508501,   0.47552827,  0.800000012
     20, -0.0522642322,  0.497260958,  0.800000012
** ... 2060 like lines cut
*Element, type=C3D8R
 1,  102,  581, 1481,  557,    1,   73,  541,   84
 2,  581,  582, 1482, 1481,   73,   74,  542,  541
 3,  582,  108,  569, 1482,   74,    2,   75,  542
 4,  557, 1481, 1483,  558,   84,  541,  543,   83
 5, 1481, 1482, 1484, 1483,  541,  542,  544,  543
 6, 1482,  569,  570, 1484,  542,   75,   76,  544
 7,  558, 1483, 1485,  559,   83,  543,  545,   82
 8, 1483, 1484, 1486, 1485,  543,  544,  546,  545
 9, 1484,  570,  571, 1486,  544,   76,   77,  546
10,  559, 1485, 1487,  560,   82,  545,  547,   81
11, 1485, 1486, 1488, 1487,  545,  546,  548,  547
12, 1486,  571,  572, 1488,  546,   77,   78,  548
13,  560, 1487,  587,   97,   81,  547,   80,    4
14, 1487, 1488,  588,  587,  547,  548,   79,   80
15, 1488,  572,  103,  588,  548,   78,    3,   79
16,  101,  583, 1489,  561,  102,  581, 1481,  557
17,  583,  584, 1490, 1489,  581,  582, 1482, 1481
18,  584,  107,  573, 1490,  582,  108,  569, 1482
19,  561, 1489, 1491,  562,  557, 1481, 1483,  558
20, 1489, 1490, 1492, 1491, 1481, 1482, 1484, 1483
** ... 1480 like lines cut
*Nset, nset=_G8, internal, generate
    1,  2080,     1
*Elset, elset=_G8, internal, generate
    1,  1500,     1
*Nset, nset=_G9, internal, generate
    1,  2080,     1
*Elset, elset=_G9, internal, generate
    1,  1500,     1
*Nset, nset=Set-1
 26,
*Orientation, name=Ori-1, system=CYLINDRICAL
          0.,           0.,          0.5,           0.,           0.,         -0.5
1, 0.
** Section: HostSec
*Solid Section, elset=_G8, orientation=Ori-1, material=Host
,
*End Instance
**  
*Instance, name=Piezo-1, part=Piezo
 -3.97987198752503e-12,  -3.29736238313671e-14,          0.4
*Node
      1, 0.0554000847,  0.527096629,  0.200000003
      2,  0.036970932,  0.528708935,  0.200000003
      3, 0.0184967332,  0.529677153,  0.200000003
      4,           0.,  0.529999971,  0.200000003
      5, -0.0184967332,  0.529677153,  0.200000003
      6, -0.036970932,  0.528708935,  0.200000003
      7, -0.0554000847,  0.527096629,  0.200000003
      8, 0.0554000847,  0.527096629,  0.180000007
      9,  0.036970932,  0.528708935,  0.180000007
     10, 0.0184967332,  0.529677153,  0.180000007
     11,           0.,  0.529999971,  0.180000007
     12, -0.0184967332,  0.529677153,  0.180000007
     13, -0.036970932,  0.528708935,  0.180000007
     14, -0.0554000847,  0.527096629,  0.180000007
     15, 0.0554000847,  0.527096629,  0.159999996
     16,  0.036970932,  0.528708935,  0.159999996
     17, 0.0184967332,  0.529677153,  0.159999996
     18,           0.,  0.529999971,  0.159999996
     19, -0.0184967332,  0.529677153,  0.159999996
     20, -0.036970932,  0.528708935,  0.159999996
** ... 1063 like lines cut
*Element, type=C3D20E
  1,   78,   79,   86,   85,    1,    2,    9,    8,  312,  311,  310,  309,  313,  314,  315,
      316,  318,  317,  319,  320
  2,   79,   80,   87,   86,    2,    3,   10,    9,  323,  322,  321,  311,  324,  325,  326,
      314,  317,  327,  328,  319
  3,   80,   81,   88,   87,    3,    4,   11,   10,  331,  330,  329,  322,  332,  333,  334,
      325,  327,  335,  336,  328
  4,   81,   82,   89,   88,    4,    5,   12,   11,  339,  338,  337,  330,  340,  341,  342,
      333,  335,  343,  344,  336
  5,   82,   83,   90,   89,    5,    6,   13,   12,  347,  346,  345,  338,  348,  349,  350,
      341,  343,  351,  352,  344
  6,   83,   84,   91,   90,    6,    7,   14,   13,  355,  354,  353,  346,  356,  357,  358,
      349,  351,  359,  360,  352
  7,   85,   86,   93,   92,    8,    9,   16,   15,  310,  363,  362,  361,  315,  364,  365,
      366,  320,  319,  367,  368
  8,   86,   87,   94,   93,    9,   10,   17,   16,  321,  370,  369,  363,  326,  371,  372,
      364,  319,  328,  373,  367
  9,   87,   88,   95,   94,   10,   11,   18,   17,  329,  375,  374,  370,  334,  376,  377,
      371,  328,  336,  378,  373
 10,   88,   89,   96,   95,   11,   12,   19,   18,  337,  380,  379,  375,  342,  381,  382,
      376,  336,  344,  383,  378
** ... 340 like lines cut
*Nset, nset=_G3, internal, generate
    1,  1083,     1
*Elset, elset=_G3, internal, generate
   1,  180,    1
*Nset, nset=_G4, internal, generate
    1,  1083,     1
*Elset, elset=_G4, internal, generate
   1,  180,    1
*Orientation, name=Ori-1, system=CYLINDRICAL
          0.,           0.,          0.2,           0.,           0.,         -0.8
1, 0.
** Section: ActSec
*Solid Section, elset=_G3, orientation=Ori-1, material=Actuator
,
*End Instance
**  
*Instance, name=Sensor-1, part=Sensor
 -3.67583741223143e-12,  -4.58882931653193e-13,          0.4
*Node
      1, 0.0517415889,  0.492288351,  0.200000003
      2, 0.0310813077,  0.494023234,  0.200000003
      3, 0.0103664976,  0.494891435,  0.200000003
      4, -0.0103664976,  0.494891435,  0.200000003
      5, -0.0310813077,  0.494023234,  0.200000003
      6, -0.0517415889,  0.492288351,  0.200000003
      7, 0.0517415889,  0.492288351,  0.180000007
      8, 0.0310813077,  0.494023234,  0.180000007
      9, 0.0103664976,  0.494891435,  0.180000007
     10, -0.0103664976,  0.494891435,  0.180000007
     11, -0.0310813077,  0.494023234,  0.180000007
     12, -0.0517415889,  0.492288351,  0.180000007
     13, 0.0517415889,  0.492288351,  0.159999996
     14, 0.0310813077,  0.494023234,  0.159999996
     15, 0.0103664976,  0.494891435,  0.159999996
     16, -0.0103664976,  0.494891435,  0.159999996
     17, -0.0310813077,  0.494023234,  0.159999996
     18, -0.0517415889,  0.492288351,  0.159999996
     19, 0.0517415889,  0.492288351,  0.140000001
     20, 0.0310813077,  0.494023234,  0.140000001
** ... 902 like lines cut
*Element, type=C3D20E
  1,  67,  68,  74,  73,   1,   2,   8,   7, 268, 267, 266, 265, 269, 270, 271,
     272, 274, 273, 275, 276
  2,  68,  69,  75,  74,   2,   3,   9,   8, 279, 278, 277, 267, 280, 281, 282,
     270, 273, 283, 284, 275
  3,  69,  70,  76,  75,   3,   4,  10,   9, 287, 286, 285, 278, 288, 289, 290,
     281, 283, 291, 292, 284
  4,  70,  71,  77,  76,   4,   5,  11,  10, 295, 294, 293, 286, 296, 297, 298,
     289, 291, 299, 300, 292
  5,  71,  72,  78,  77,   5,   6,  12,  11, 303, 302, 301, 294, 304, 305, 306,
     297, 299, 307, 308, 300
  6,  73,  74,  80,  79,   7,   8,  14,  13, 266, 311, 310, 309, 271, 312, 313,
     314, 276, 275, 315, 316
  7,  74,  75,  81,  80,   8,   9,  15,  14, 277, 318, 317, 311, 282, 319, 320,
     312, 275, 284, 321, 315
  8,  75,  76,  82,  81,   9,  10,  16,  15, 285, 323, 322, 318, 290, 324, 325,
     319, 284, 292, 326, 321
  9,  76,  77,  83,  82,  10,  11,  17,  16, 293, 328, 327, 323, 298, 329, 330,
     324, 292, 300, 331, 326
 10,  77,  78,  84,  83,  11,  12,  18,  17, 301, 333, 332, 328, 306, 334, 335,
     329, 300, 308, 336, 331
** ... 280 like lines cut
*Nset, nset=_G3, internal, generate
   1,  922,    1
*Elset, elset=_G3, internal, generate
   1,  150,    1
*Nset, nset=_G4, internal, generate
   1,  922,    1
*Elset, elset=_G4, internal, generate
   1,  150,    1
*Orientation, name=Ori-1, system=CYLINDRICAL
          0.,           0.,          0.2,           0.,           0.,         -0.8
1, 0.
** Section: SenSec
*Solid Section, elset=_G3, orientation=Ori-1, material=Sens
,
*End Instance
**  
*Nset, nset=SENSOR_POINT_1, instance=Sensor-1
 1,
*Nset, nset=SENSOR_POINT_2, instance=Sensor-1
 2,
*Nset, nset=SENSOR_POINT_3, instance=Sensor-1
 3,
*Nset, nset=SENSOR_POINT_4, instance=Sensor-1
 7,
*Nset, nset=SENSOR_POINT_5, instance=Sensor-1
 8,
*Nset, nset=SENSOR_POINT_6, instance=Sensor-1
 9,
*Nset, nset=SENSOR_POINT_7, instance=Sensor-1
 13,
*Nset, nset=SENSOR_POINT_8, instance=Sensor-1
 14,
*Nset, nset=SENSOR_POINT_9, instance=Sensor-1
 15,
*Nset, nset=SENSOR_POINT_10, instance=Sensor-1
 19,
*Nset, nset=SENSOR_POINT_11, instance=Sensor-1
 20,
*Nset, nset=SENSOR_POINT_12, instance=Sensor-1
 21,
*Nset, nset=SENSOR_POINT_13, instance=Sensor-1
 25,
*Nset, nset=SENSOR_POINT_14, instance=Sensor-1
 26,
*Nset, nset=SENSOR_POINT_15, instance=Sensor-1
 27,
*Nset, nset=SENSOR_POINT_16, instance=Sensor-1
 31,
*Nset, nset=SENSOR_POINT_17, instance=Sensor-1
 32,
*Nset, nset=SENSOR_POINT_18, instance=Sensor-1
 33,
*Nset, nset=act_lower_layer, instance=Piezo-1
   1,   2,   3,   4,   5,   6,   7,   8,   9,  10,  11,  12,  13,  14,  15,  16
  17,  18,  19,  20,  21,  22,  23,  24,  25,  26,  27,  28,  29,  30,  31,  32
  33,  34,  35,  36,  37,  38,  39,  40,  41,  42,  43,  44,  45,  46,  47,  48
  49,  50,  51,  52,  53,  54,  55,  56,  57,  58,  59,  60,  61,  62,  63,  64
  65,  66,  67,  68,  69,  70,  71,  72,  73,  74,  75,  76,  77, 313, 314, 315
 316, 324, 325, 326, 332, 333, 334, 340, 341, 342, 348, 349, 350, 356, 357, 358
 364, 365, 366, 371, 372, 376, 377, 381, 382, 386, 387, 391, 392, 397, 398, 399
 404, 405, 409, 410, 414, 415, 419, 420, 424, 425, 430, 431, 432, 437, 438, 442
 443, 447, 448, 452, 453, 457, 458, 463, 464, 465, 470, 471, 475, 476, 480, 481
 485, 486, 490, 491, 496, 497, 498, 503, 504, 508, 509, 513, 514, 518, 519, 523
 524, 529, 530, 531, 536, 537, 541, 542, 546, 547, 551, 552, 556, 557, 562, 563
 564, 569, 570, 574, 575, 579, 580, 584, 585, 589, 590, 595, 596, 597, 602, 603
 607, 608, 612, 613, 617, 618, 622, 623, 628, 629, 630, 635, 636, 640, 641, 645
 646, 650, 651, 655, 656
*Elset, elset=act_lower_layer, instance=Piezo-1, generate
  1,  60,   1
*Nset, nset=act_sens_back_side, instance=Piezo-1
   71,   72,   73,   74,   75,   76,   77,  148,  149,  150,  151,  152,  153,  154,  225,  226
  227,  228,  229,  230,  231,  302,  303,  304,  305,  306,  307,  308,  626,  629,  631,  632
  633,  636,  637,  638,  641,  642,  643,  646,  647,  648,  651,  652,  653,  656,  657,  852
  854,  855,  856,  858,  859,  861,  862,  864,  865,  867,  868,  870, 1065, 1067, 1068, 1069
 1071, 1072, 1074, 1075, 1077, 1078, 1080, 1081, 1083
*Nset, nset=act_sens_back_side, instance=Sensor-1
  61,  62,  63,  64,  65,  66, 127, 128, 129, 130, 131, 132, 193, 194, 195, 196
 197, 198, 259, 260, 261, 262, 263, 264, 534, 537, 539, 540, 541, 544, 545, 546
 549, 550, 551, 554, 555, 556, 559, 560, 726, 728, 729, 730, 732, 733, 735, 736
 738, 739, 741, 907, 909, 910, 911, 913, 914, 916, 917, 919, 920, 922
*Elset, elset=act_sens_back_side, instance=Piezo-1
  55,  56,  57,  58,  59,  60, 115, 116, 117, 118, 119, 120, 175, 176, 177, 178
 179, 180
*Elset, elset=act_sens_back_side, instance=Sensor-1
  46,  47,  48,  49,  50,  96,  97,  98,  99, 100, 146, 147, 148, 149, 150
*Nset, nset=act_sens_front_side, instance=Piezo-1
   1,   2,   3,   4,   5,   6,   7,  78,  79,  80,  81,  82,  83,  84, 155, 156
 157, 158, 159, 160, 161, 232, 233, 234, 235, 236, 237, 238, 312, 313, 317, 318
 323, 324, 327, 331, 332, 335, 339, 340, 343, 347, 348, 351, 355, 356, 359, 661
 662, 663, 668, 669, 673, 674, 678, 679, 683, 684, 688, 689, 874, 875, 876, 881
 882, 886, 887, 891, 892, 896, 897, 901, 902
*Nset, nset=act_sens_front_side, instance=Sensor-1
   1,   2,   3,   4,   5,   6,  67,  68,  69,  70,  71,  72, 133, 134, 135, 136
 137, 138, 199, 200, 201, 202, 203, 204, 268, 269, 273, 274, 279, 280, 283, 287
 288, 291, 295, 296, 299, 303, 304, 307, 564, 565, 566, 571, 572, 576, 577, 581
 582, 586, 587, 745, 746, 747, 752, 753, 757, 758, 762, 763, 767, 768
*Elset, elset=act_sens_front_side, instance=Piezo-1
   1,   2,   3,   4,   5,   6,  61,  62,  63,  64,  65,  66, 121, 122, 123, 124
 125, 126
*Elset, elset=act_sens_front_side, instance=Sensor-1
   1,   2,   3,   4,   5,  51,  52,  53,  54,  55, 101, 102, 103, 104, 105
*Nset, nset=act_sens_left_side, instance=Piezo-1
    7,   14,   21,   28,   35,   42,   49,   56,   63,   70,   77,   84,   91,   98,  105,  112
  119,  126,  133,  140,  147,  154,  161,  168,  175,  182,  189,  196,  203,  210,  217,  224
  231,  238,  245,  252,  259,  266,  273,  280,  287,  294,  301,  308,  354,  357,  359,  360
  390,  391,  393,  423,  424,  426,  456,  457,  459,  489,  490,  492,  522,  523,  525,  555
  556,  558,  588,  589,  591,  621,  622,  624,  654,  655,  657,  687,  689,  690,  709,  710
  729,  730,  749,  750,  769,  770,  789,  790,  809,  810,  829,  830,  849,  850,  869,  870
  900,  902,  903,  922,  923,  942,  943,  962,  963,  982,  983, 1002, 1003, 1022, 1023, 1042
 1043, 1062, 1063, 1082, 1083
*Nset, nset=act_sens_left_side, instance=Sensor-1
   6,  12,  18,  24,  30,  36,  42,  48,  54,  60,  66,  72,  78,  84,  90,  96
 102, 108, 114, 120, 126, 132, 138, 144, 150, 156, 162, 168, 174, 180, 186, 192
 198, 204, 210, 216, 222, 228, 234, 240, 246, 252, 258, 264, 302, 305, 307, 308
 333, 334, 336, 361, 362, 364, 389, 390, 392, 417, 418, 420, 445, 446, 448, 473
 474, 476, 501, 502, 504, 529, 530, 532, 557, 558, 560, 585, 587, 588, 604, 605
 621, 622, 638, 639, 655, 656, 672, 673, 689, 690, 706, 707, 723, 724, 740, 741
 766, 768, 769, 785, 786, 802, 803, 819, 820, 836, 837, 853, 854, 870, 871, 887
 888, 904, 905, 921, 922
*Elset, elset=act_sens_left_side, instance=Piezo-1, generate
   6,  180,    6
*Elset, elset=act_sens_left_side, instance=Sensor-1, generate
   5,  150,    5
*Nset, nset=act_sens_right_side, instance=Piezo-1
    1,    8,   15,   22,   29,   36,   43,   50,   57,   64,   71,   78,   85,   92,   99,  106
  113,  120,  127,  134,  141,  148,  155,  162,  169,  176,  183,  190,  197,  204,  211,  218
  225,  232,  239,  246,  253,  260,  267,  274,  281,  288,  295,  302,  309,  316,  318,  320
  361,  366,  368,  394,  399,  401,  427,  432,  434,  460,  465,  467,  493,  498,  500,  526
  531,  533,  559,  564,  566,  592,  597,  599,  625,  630,  632,  658,  663,  665,  691,  695
  711,  715,  731,  735,  751,  755,  771,  775,  791,  795,  811,  815,  831,  835,  851,  855
  871,  876,  878,  904,  908,  924,  928,  944,  948,  964,  968,  984,  988, 1004, 1008, 1024
 1028, 1044, 1048, 1064, 1068
*Nset, nset=act_sens_right_side, instance=Sensor-1
   1,   7,  13,  19,  25,  31,  37,  43,  49,  55,  61,  67,  73,  79,  85,  91
  97, 103, 109, 115, 121, 127, 133, 139, 145, 151, 157, 163, 169, 175, 181, 187
 193, 199, 205, 211, 217, 223, 229, 235, 241, 247, 253, 259, 265, 272, 274, 276
 309, 314, 316, 337, 342, 344, 365, 370, 372, 393, 398, 400, 421, 426, 428, 449
 454, 456, 477, 482, 484, 505, 510, 512, 533, 538, 540, 561, 566, 568, 589, 593
 606, 610, 623, 627, 640, 644, 657, 661, 674, 678, 691, 695, 708, 712, 725, 729
 742, 747, 749, 770, 774, 787, 791, 804, 808, 821, 825, 838, 842, 855, 859, 872
 876, 889, 893, 906, 910
*Elset, elset=act_sens_right_side, instance=Piezo-1, generate
   1,  175,    6
*Elset, elset=act_sens_right_side, instance=Sensor-1, generate
   1,  146,    5
*Nset, nset=act_upper_side, instance=Piezo-1
  232,  233,  234,  235,  236,  237,  238,  239,  240,  241,  242,  243,  244,  245,  246,  247
  248,  249,  250,  251,  252,  253,  254,  255,  256,  257,  258,  259,  260,  261,  262,  263
  264,  265,  266,  267,  268,  269,  270,  271,  272,  273,  274,  275,  276,  277,  278,  279
  280,  281,  282,  283,  284,  285,  286,  287,  288,  289,  290,  291,  292,  293,  294,  295
  296,  297,  298,  299,  300,  301,  302,  303,  304,  305,  306,  307,  308,  871,  872,  873
  874,  879,  880,  881,  884,  885,  886,  889,  890,  891,  894,  895,  896,  899,  900,  901
  904,  905,  906,  909,  910,  912,  913,  915,  916,  918,  919,  921,  922,  924,  925,  926
  929,  930,  932,  933,  935,  936,  938,  939,  941,  942,  944,  945,  946,  949,  950,  952
  953,  955,  956,  958,  959,  961,  962,  964,  965,  966,  969,  970,  972,  973,  975,  976
  978,  979,  981,  982,  984,  985,  986,  989,  990,  992,  993,  995,  996,  998,  999, 1001
 1002, 1004, 1005, 1006, 1009, 1010, 1012, 1013, 1015, 1016, 1018, 1019, 1021, 1022, 1024, 1025
 1026, 1029, 1030, 1032, 1033, 1035, 1036, 1038, 1039, 1041, 1042, 1044, 1045, 1046, 1049, 1050
 1052, 1053, 1055, 1056, 1058, 1059, 1061, 1062, 1064, 1065, 1066, 1069, 1070, 1072, 1073, 1075
 1076, 1078, 1079, 1081, 1082
*Elset, elset=act_upper_side, instance=Piezo-1, generate
 121,  180,    1
*Nset, nset=actuator_poin2, instance=Piezo-1
 256,
*Nset, nset=actuator_point1, instance=Piezo-1
 244,
*Nset, nset=sens_bottom_side, instance=Sensor-1
   1,   2,   3,   4,   5,   6,   7,   8,   9,  10,  11,  12,  13,  14,  15,  16
  17,  18,  19,  20,  21,  22,  23,  24,  25,  26,  27,  28,  29,  30,  31,  32
  33,  34,  35,  36,  37,  38,  39,  40,  41,  42,  43,  44,  45,  46,  47,  48
  49,  50,  51,  52,  53,  54,  55,  56,  57,  58,  59,  60,  61,  62,  63,  64
  65,  66, 269, 270, 271, 272, 280, 281, 282, 288, 289, 290, 296, 297, 298, 304
 305, 306, 312, 313, 314, 319, 320, 324, 325, 329, 330, 334, 335, 340, 341, 342
 347, 348, 352, 353, 357, 358, 362, 363, 368, 369, 370, 375, 376, 380, 381, 385
 386, 390, 391, 396, 397, 398, 403, 404, 408, 409, 413, 414, 418, 419, 424, 425
 426, 431, 432, 436, 437, 441, 442, 446, 447, 452, 453, 454, 459, 460, 464, 465
 469, 470, 474, 475, 480, 481, 482, 487, 488, 492, 493, 497, 498, 502, 503, 508
 509, 510, 515, 516, 520, 521, 525, 526, 530, 531, 536, 537, 538, 543, 544, 548
 549, 553, 554, 558, 559
*Elset, elset=sens_bottom_side, instance=Sensor-1, generate
  1,  50,   1
*Nset, nset=sens_upper_layer, instance=Sensor-1
 199, 200, 201, 202, 203, 204, 205, 206, 207, 208, 209, 210, 211, 212, 213, 214
 215, 216, 217, 218, 219, 220, 221, 222, 223, 224, 225, 226, 227, 228, 229, 230
 231, 232, 233, 234, 235, 236, 237, 238, 239, 240, 241, 242, 243, 244, 245, 246
 247, 248, 249, 250, 251, 252, 253, 254, 255, 256, 257, 258, 259, 260, 261, 262
 263, 264, 742, 743, 744, 745, 750, 751, 752, 755, 756, 757, 760, 761, 762, 765
 766, 767, 770, 771, 772, 775, 776, 778, 779, 781, 782, 784, 785, 787, 788, 789
 792, 793, 795, 796, 798, 799, 801, 802, 804, 805, 806, 809, 810, 812, 813, 815
 816, 818, 819, 821, 822, 823, 826, 827, 829, 830, 832, 833, 835, 836, 838, 839
 840, 843, 844, 846, 847, 849, 850, 852, 853, 855, 856, 857, 860, 861, 863, 864
 866, 867, 869, 870, 872, 873, 874, 877, 878, 880, 881, 883, 884, 886, 887, 889
 890, 891, 894, 895, 897, 898, 900, 901, 903, 904, 906, 907, 908, 911, 912, 914
 915, 917, 918, 920, 921
*Elset, elset=sens_upper_layer, instance=Sensor-1, generate
 101,  150,    1
*Nset, nset=_PickedSet31, internal, instance=Cylinder-1
   40,   41,   43,   44,   54,   55,   56,   57,   69,   70,   71,   72,  312,  313,  324,  325
  330,  331,  332,  333,  334,  335,  397,  398,  409,  410,  415,  416,  417,  421,  422,  423
  511,  512,  517,  518,  519,  520,  521,  522,  523,  524,  525,  526,  527,  532,  533,  538
  539,  540, 1027, 1028, 1029, 1030, 1031, 1032, 1187, 1188, 1189, 1190, 1191, 1192, 1403, 1404
 1405, 1406, 1407, 1408, 1441, 1442, 1443, 1444, 1445, 1446, 1475, 1476, 1477, 1478, 1479, 1480
*Elset, elset=_PickedSet31, internal, instance=Cylinder-1
  673,  674,  675,  688,  689,  690,  703,  704,  705,  718,  719,  720,  913,  914,  915,  928
  929,  930,  943,  944,  945,  958,  959,  960, 1273, 1274, 1275, 1288, 1289, 1290, 1303, 1304
 1305, 1318, 1319, 1320, 1393, 1394, 1395, 1408, 1409, 1410, 1423, 1424, 1425, 1438, 1439, 1440
 1453, 1454, 1455, 1468, 1469, 1470, 1483, 1484, 1485, 1498, 1499, 1500
*Nset, nset=_PickedSet32, internal, instance=Cylinder-1
    3,    4,    6,    7,   29,   30,   32,   34,   46,   48,   60,   61,   79,   80,   91,   92
   97,   98,   99,  103,  104,  105,  239,  240,  245,  246,  251,  252,  253,  260,  261,  268
  269,  270,  271,  272,  345,  346,  353,  354,  355,  356,  357,  426,  427,  434,  435,  440
  441,  442,  587,  588,  589,  590,  591,  592,  867,  868,  869,  870,  871,  872,  907,  908
  909,  910,  911,  912, 1067, 1068, 1069, 1070, 1071, 1072, 1227, 1228, 1229, 1230, 1231, 1232
*Elset, elset=_PickedSet32, internal, instance=Cylinder-1
   13,   14,   15,   28,   29,   30,   43,   44,   45,   58,   59,   60,  433,  434,  435,  448
  449,  450,  463,  464,  465,  478,  479,  480,  493,  494,  495,  508,  509,  510,  523,  524
  525,  538,  539,  540,  733,  734,  735,  748,  749,  750,  763,  764,  765,  778,  779,  780
  973,  974,  975,  988,  989,  990, 1003, 1004, 1005, 1018, 1019, 1020
*Nset, nset=_PickedSet33, internal, instance=Cylinder-1
   59,   60,   61,   62,   63,   64,   65,   66,   67,   68,   71,   72,  428,  429,  430,  431
  436,  437,  438,  439,  440,  441,  442,  443,  444,  445,  448,  449,  450,  451,  454,  455
  456,  457,  458,  459,  460,  469,  470,  471,  472,  481,  482,  483,  484,  485,  486,  487
  488,  489,  490,  491,  492,  493,  494,  495,  496,  497,  498,  528,  529,  530,  531,  534
  535,  536,  537,  538,  539,  540, 1209, 1210, 1211, 1212, 1213, 1214, 1215, 1216, 1217, 1218
 1219, 1220, 1249, 1250, 1251, 1252, 1253, 1254, 1255, 1256, 1257, 1258, 1259, 1260, 1283, 1284
 1285, 1286, 1287, 1288, 1289, 1290, 1291, 1292, 1293, 1294, 1335, 1336, 1337, 1338, 1339, 1340
 1341, 1342, 1343, 1344, 1345, 1346, 1463, 1464, 1465, 1466, 1467, 1468, 1469, 1470, 1471, 1472
 1473, 1474
*Elset, elset=_PickedSet33, internal, instance=Cylinder-1
  961,  964,  967,  970,  973,  976,  979,  982,  985,  988,  991,  994,  997, 1000, 1003, 1006
 1009, 1012, 1015, 1018, 1021, 1024, 1027, 1030, 1033, 1036, 1039, 1042, 1045, 1048, 1051, 1054
 1057, 1060, 1063, 1066, 1069, 1072, 1075, 1078, 1081, 1084, 1087, 1090, 1093, 1096, 1099, 1102
 1105, 1108, 1111, 1114, 1117, 1120, 1123, 1126, 1129, 1132, 1135, 1138, 1143, 1146, 1149, 1152
 1155, 1158, 1161, 1164, 1167, 1170, 1173, 1176, 1179, 1182, 1185, 1188, 1191, 1194, 1197, 1200
 1441, 1444, 1447, 1450, 1453, 1456, 1459, 1462, 1465, 1468, 1471, 1474, 1477, 1480, 1483, 1486
 1489, 1492, 1495, 1498
*Nset, nset=_PickedSet34, internal, instance=Cylinder-1
   45,   46,   47,   48,   49,   50,   51,   52,   53,   55,   57,   58,  341,  342,  343,  344
  349,  350,  351,  352,  355,  356,  357,  358,  359,  360,  365,  366,  367,  368,  373,  374
  375,  376,  377,  378,  379,  380,  381,  382,  383,  384,  385,  386,  387,  388,  389,  390
  399,  400,  401,  402,  411,  412,  413,  414,  415,  416,  417,  418,  419,  420,  499,  500
  501,  502,  503,  504,  505,  506, 1049, 1050, 1051, 1052, 1053, 1054, 1055, 1056, 1057, 1058
 1059, 1060, 1089, 1090, 1091, 1092, 1093, 1094, 1095, 1096, 1097, 1098, 1099, 1100, 1129, 1130
 1131, 1132, 1133, 1134, 1135, 1136, 1137, 1138, 1139, 1140, 1157, 1158, 1159, 1160, 1161, 1162
 1163, 1164, 1165, 1166, 1167, 1168, 1363, 1364, 1365, 1366, 1367, 1368, 1369, 1370, 1371, 1372
 1373, 1374
*Elset, elset=_PickedSet34, internal, instance=Cylinder-1
  723,  726,  729,  732,  735,  738,  741,  744,  747,  750,  753,  756,  759,  762,  765,  768
  771,  774,  777,  780,  781,  784,  787,  790,  793,  796,  799,  802,  805,  808,  811,  814
  817,  820,  823,  826,  829,  832,  835,  838,  843,  846,  849,  852,  855,  858,  861,  864
  867,  870,  873,  876,  879,  882,  885,  888,  891,  894,  897,  900,  901,  904,  907,  910
  913,  916,  919,  922,  925,  928,  931,  934,  937,  940,  943,  946,  949,  952,  955,  958
 1203, 1206, 1209, 1212, 1215, 1218, 1221, 1224, 1227, 1230, 1233, 1236, 1239, 1242, 1245, 1248
 1251, 1254, 1257, 1260
*Elset, elset="_Bottom Layer Cylinder_S2", internal, instance=Cylinder-1, generate
 721,  735,    1
*Surface, type=ELEMENT, name="Bottom Layer Cylinder"
"_Bottom Layer Cylinder_S2", S2
*Elset, elset="_Bottom Layer Piezo_S2", internal, instance=Piezo-1, generate
  1,  60,   1
*Surface, type=ELEMENT, name="Bottom Layer Piezo"
"_Bottom Layer Piezo_S2", S2
*Elset, elset=_CylinderSurface_S1, internal, instance=Cylinder-1
   46,   47,   48,   49,   50,   51,   52,   53,   54,   55,   56,   57,   58,   59,   60,  106
  107,  108,  109,  110,  111,  112,  113,  114,  115,  116,  117,  118,  119,  120,  166,  167
  168,  169,  170,  171,  172,  173,  174,  175,  176,  177,  178,  179,  180,  346,  347,  348
  349,  350,  351,  352,  353,  354,  355,  356,  357,  358,  359,  360,  466,  467,  468,  469
  470,  471,  472,  473,  474,  475,  476,  477,  478,  479,  480,  586,  587,  588,  589,  590
  591,  592,  593,  594,  595,  596,  597,  598,  599,  600,  706,  707,  708,  709,  710,  711
  712,  713,  714,  715,  716,  717,  718,  719,  720,  766,  767,  768,  769,  770,  771,  772
  773,  774,  775,  776,  777,  778,  779,  780,  826,  827,  828,  829,  830,  831,  832,  833
  834,  835,  836,  837,  838,  839,  840,  946,  947,  948,  949,  950,  951,  952,  953,  954
  955,  956,  957,  958,  959,  960, 1006, 1007, 1008, 1009, 1010, 1011, 1012, 1013, 1014, 1015
 1016, 1017, 1018, 1019, 1020, 1186, 1187, 1188, 1189, 1190, 1191, 1192, 1193, 1194, 1195, 1196
 1197, 1198, 1199, 1200, 1366, 1367, 1368, 1369, 1370, 1371, 1372, 1373, 1374, 1375, 1376, 1377
 1378, 1379, 1380, 1426, 1427, 1428, 1429, 1430, 1431, 1432, 1433, 1434, 1435, 1436, 1437, 1438
 1439, 1440
*Elset, elset=_CylinderSurface_S2, internal, instance=Cylinder-1
  181,  182,  183,  184,  185,  186,  187,  188,  189,  190,  191,  192,  193,  194,  195,  241
  242,  243,  244,  245,  246,  247,  248,  249,  250,  251,  252,  253,  254,  255,  361,  362
  363,  364,  365,  366,  367,  368,  369,  370,  371,  372,  373,  374,  375,  481,  482,  483
  484,  485,  486,  487,  488,  489,  490,  491,  492,  493,  494,  495,  601,  602,  603,  604
  605,  606,  607,  608,  609,  610,  611,  612,  613,  614,  615,  841,  842,  843,  844,  845
  846,  847,  848,  849,  850,  851,  852,  853,  854,  855, 1021, 1022, 1023, 1024, 1025, 1026
 1027, 1028, 1029, 1030, 1031, 1032, 1033, 1034, 1035, 1081, 1082, 1083, 1084, 1085, 1086, 1087
 1088, 1089, 1090, 1091, 1092, 1093, 1094, 1095, 1201, 1202, 1203, 1204, 1205, 1206, 1207, 1208
 1209, 1210, 1211, 1212, 1213, 1214, 1215, 1261, 1262, 1263, 1264, 1265, 1266, 1267, 1268, 1269
 1270, 1271, 1272, 1273, 1274, 1275, 1441, 1442, 1443, 1444, 1445, 1446, 1447, 1448, 1449, 1450
 1451, 1452, 1453, 1454, 1455
*Surface, type=ELEMENT, name=CylinderSurface
_CylinderSurface_S1, S1
_CylinderSurface_S2, S2
*Elset, elset=_TOP_LAYER_ACTUATOR_S1, internal, instance=Piezo-1, generate
 121,  180,    1
*Surface, type=ELEMENT, name=TOP_LAYER_ACTUATOR
_TOP_LAYER_ACTUATOR_S1, S1
*Elset, elset="_Top Layer Cylinder_S1", internal, instance=Cylinder-1, generate
 766,  780,    1
*Surface, type=ELEMENT, name="Top Layer Cylinder"
"_Top Layer Cylinder_S1", S1
*Elset, elset="_Top Layer Piezo_S1", internal, instance=Sensor-1, generate
 101,  150,    1
*Surface, type=ELEMENT, name="Top Layer Piezo"
"_Top Layer Piezo_S1", S1
*Elset, elset=__PickedSurf40_S2, internal, instance=Cylinder-1, generate
 301,  315,    1
*Surface, type=ELEMENT, name=_PickedSurf40, internal
__PickedSurf40_S2, S2
*Elset, elset=__PickedSurf41_S1, internal, instance=Cylinder-1, generate
 346,  360,    1
*Surface, type=ELEMENT, name=_PickedSurf41, internal
__PickedSurf41_S1, S1
*Nset, nset=_T-Cylinder-1-CylindricalCoor, internal
_PickedSet31, 
_PickedSet32, 
_PickedSet33, 
_PickedSet34, 
*Transform, nset=_T-Cylinder-1-CylindricalCoor, type=C
          0.,           0.,          0.5,           0.,           0.,         -0.5
** Constraint: Constraint-1
*Tie, name=Constraint-1, adjust=yes
_PickedSurf41, "Bottom Layer Piezo"
** Constraint: Constraint-2
*Tie, name=Constraint-2, adjust=yes
"Top Layer Piezo", _PickedSurf40
*End Assembly
*Amplitude, name=Amp-4
             0.,              1.,           0.001,              0.,             0.5,              0.
*Amplitude, name=HOSTAMPLITUDE
             0.,              0.,            0.01,              0.,            0.02,            100.,            0.03,              0.
            80.,              0.
*Amplitude, name=PERIODIC, definition=PERIODIC
1,           1256.,              0.,              0.
             0.,              1.
*Amplitude, name=SURFACE_CHARGE, definition=USER, variables=1
** 
** MATERIALS
** 
*Material, name=Actuator
*Density
5300.,
*Dielectric, type=ORTHO
 1.96e-09, 2.01e-09,  2.8e-10
*Elastic, type=ORTHOTROPIC
 2.39e+11, 1.04e+11, 2.47e+11,  5.2e+10,  5.2e+10, 1.35e+11,  7.6e+10,  6.6e+10
  6.5e+10,
*Piezoelectric
 4.3, -0.4, -0.3,   0.,   0.,   0.,   0.,   0.
   0.,  3.4,   0.,   0.,   0.,   0.,   0.,   0.
  2.8,   0.
*Material, name=Host
*Density
7800.,
*Elastic, type=ORTHOTROPIC
 2.8269e+11, 1.2115e+11, 2.8269e+11, 1.2115e+11, 1.2115e+11, 2.8269e+11,  8.077e+10,  8.077e+10
  8.077e+10,
*Material, name=Sens
*Density
7500.,
*Dielectric, type=ORTHO
 6.56e-09, 6.51e-09,  5.6e-10
*Elastic, type=ORTHOTROPIC
 1.39e+11,  7.8e+10, 1.39e+11, 7.43e+10, 7.43e+10, 1.55e+11, 3.06e+10, 2.56e+10
 2.56e+10,
*Piezoelectric
 15.1, -5.2, -5.2,   0.,   0.,   0.,   0.,   0.
   0., 12.7,   0.,   0.,   0.,   0.,   0.,   0.
 12.7,   0.
** 
** BOUNDARY CONDITIONS
** 
** Name: BC-1 Type: Symmetry/Antisymmetry/Encastre
*Boundary
_PickedSet31, ENCASTRE
** Name: BC-2 Type: Symmetry/Antisymmetry/Encastre
*Boundary
_PickedSet32, ENCASTRE
** Name: BC-3 Type: Symmetry/Antisymmetry/Encastre
*Boundary
_PickedSet33, ENCASTRE
** Name: BC-4 Type: Symmetry/Antisymmetry/Encastre
*Boundary
_PickedSet34, ENCASTRE
** Name: BC-5 Type: Electric potential
*Boundary
act_lower_layer, 9, 9
** Name: BC-6 Type: Electric potential
*Boundary
sens_upper_layer, 9, 9
** ----------------------------------------------------------------
** 
** STEP: Step-1
** 
*Step, name=Step-1, nlgeom=NO, inc=1000000000
*Dynamic
1e-13,0.08,1e-13,0.0001
** 
** LOADS
** 
** Name: Load-1   Type: Pressure
*Dsload, amplitude=Amp-4
CylinderSurface, P, 1e+08
** 
** OUTPUT REQUESTS
** 
*Restart, write, frequency=0
** 
** FIELD OUTPUT: F-Output-1
** 
*Output, field
*Node Output
EPOT, U
** 
** HISTORY OUTPUT: SENU1
** 
*Output, history, sensor, name=SENU1, frequency=1
*Node Output, nset=SENSOR_POINT_1
EPOT, 
** 
** HISTORY OUTPUT: SENU10
** 
*Output, history, sensor, name=SENU10, frequency=1
*Node Output, nset=SENSOR_POINT_10
EPOT, 
** 
** HISTORY OUTPUT: SENU11
** 
*Output, history, sensor, name=SENU11, frequency=1
*Node Output, nset=SENSOR_POINT_11
EPOT, 
** 
** HISTORY OUTPUT: SENU12
** 
*Output, history, sensor, name=SENU12, frequency=1
*Node Output, nset=SENSOR_POINT_12
EPOT, 
** 
** HISTORY OUTPUT: SENU13
** 
*Output, history, sensor, name=SENU13, frequency=1
*Node Output, nset=SENSOR_POINT_13
EPOT, 
** 
** HISTORY OUTPUT: SENU14
** 
*Output, history, sensor, name=SENU14, frequency=1
*Node Output, nset=SENSOR_POINT_14
EPOT, 
** 
** HISTORY OUTPUT: SENU15
** 
*Output, history, sensor, name=SENU15, frequency=1
*Node Output, nset=SENSOR_POINT_15
EPOT, 
** 
** HISTORY OUTPUT: SENU16
** 
*Output, history, sensor, name=SENU16, frequency=1
*Node Output, nset=SENSOR_POINT_16
EPOT, 
** 
** HISTORY OUTPUT: SENU17
** 
*Output, history, sensor, name=SENU17, frequency=1
*Node Output, nset=SENSOR_POINT_17
EPOT, 
** 
** HISTORY OUTPUT: SENU18
** 
*Output, history, sensor, name=SENU18, frequency=1
*Node Output, nset=SENSOR_POINT_18
EPOT, 
** 
** HISTORY OUTPUT: SENU2
** 
*Output, history, sensor, name=SENU2, frequency=1
*Node Output, nset=SENSOR_POINT_2
EPOT, 
** 
** HISTORY OUTPUT: SENU3
** 
*Output, history, sensor, name=SENU3, frequency=1
*Node Output, nset=SENSOR_POINT_3
EPOT, 
** 
** HISTORY OUTPUT: SENU4
** 
*Output, history, sensor, name=SENU4, frequency=1
*Node Output, nset=SENSOR_POINT_4
EPOT, 
** 
** HISTORY OUTPUT: SENU5
** 
*Output, history, sensor, name=SENU5, frequency=1
*Node Output, nset=SENSOR_POINT_5
EPOT, 
** 
** HISTORY OUTPUT: SENU6
** 
*Output, history, sensor, name=SENU6, frequency=1
*Node Output, nset=SENSOR_POINT_6
EPOT, 
** 
** HISTORY OUTPUT: SENU7
** 
*Output, history, sensor, name=SENU7, frequency=1
*Node Output, nset=SENSOR_POINT_7
EPOT, 
** 
** HISTORY OUTPUT: SENU8
** 
*Output, history, sensor, name=SENU8, frequency=1
*Node Output, nset=SENSOR_POINT_8
EPOT, 
** 
** HISTORY OUTPUT: SENU9
** 
*Output, history, sensor, name=SENU9, frequency=1
*Node Output, nset=SENSOR_POINT_9
EPOT, 
** 
** HISTORY OUTPUT: H-Output-5
** 
*Output, history, frequency=1
*Node Output, nset=Cylinder-1.Set-1
U1, U2, U3, UR1, UR2, UR3
** 
** HISTORY OUTPUT: ACTU2
** 
*Node Output, nset=actuator_poin2
EPOT, U1, U2, U3, UR1, UR2, UR3
** 
** HISTORY OUTPUT: ACTU1
** 
*Node Output, nset=actuator_point1
EPOT, U1, U2, U3, UR1, UR2, UR3
** 
** HISTORY OUTPUT: H-Output-1
** 
*Output, history, frequency=1000
*Energy Output
ETOTAL, 
*End Step
