1

   Abaqus 6.13-1                                  Date 20-Feb-2016   Time 12:03:30
   For use by  under license from Dassault Systemes or its subsidiary.



                         The Abaqus Software is a product of:

                           Dassault Systemes Simulia Corp.
                                 Rising Sun Mills
                                 166 Valley Street
                           Providence, RI 02909-2499, USA
 


                   The Abaqus Software is available only under license
                   from Dassault Systemes or its subsidiary and may be
                   used or reproduced only in accordance with the terms
                   of such license.
 
                          On machine ABLAH 
                          you are authorized to run
                          Abaqus/Standard until 31-Dec-2055

                          Your site id is:  


 
                    For assistance or any other information you may
                    obtain contact information for your local office
                    from the world wide web at:

                      http://www.3ds.com/products/simulia/locations/

 
                * * * * * * * * * * * * * * * * * * * * * * * * * * * * * * 
                *                                                         * 
                *                   *****************                     * 
                *                   *  N O T I C E  *                     * 
                *                   *****************                     * 
                *                                                         * 
                *                                                         * 
                *                    Abaqus 6.13-1                        * 
                *                                                         * 
                *          BUILD ID: 2013_05_16-04.28.56 126354           * 
                *                                                         * 
                *                                                         * 
                *  Please make sure you are using release 6.13 manuals    * 
                *  plus the notes accompanying this release.              * 
                *                                                         * 
                *                                                         * 
                *                                                         * 
                *                                                         * 
                * * * * * * * * * * * * * * * * * * * * * * * * * * * * * * 


 



     PROCESSING PART, INSTANCE, AND ASSEMBLY INFORMATION
   *******************************************************


     END PROCESSING PART, INSTANCE, AND ASSEMBLY INFORMATION
   ***********************************************************

1

   Abaqus 6.13-1                                  Date 20-Feb-2016   Time 12:03:30
   For use by  under license from Dassault Systemes or its subsidiary.

                                                                                     

                                             A B A Q U S   I N P U T   E C H O


                    *Heading
                    *preprint, echo=YES, history=YES, model=YES, contact=YES
                    ** ----------------------------------------------------------------     
                    ** PART INSTANCE: CYLINDER-1    
     LINE     5     **      
                    *Node   
                    1, -0.0522642322, 0.497260958, 0.200000003      
                    2, -0.154508501, 0.47552827, 0.200000003
                    3, -0.154508501, 0.47552827, 0  
     LINE    10     4, -0.0522642322, 0.497260958, 0
                    5, -0.163779005, 0.50405997, 0.200000003
                    6, -0.163779005, 0.50405997, 0  
                    7, -0.0554000847, 0.527096629, 0
                    8, -0.0554000847, 0.527096629, 0.200000003      
     LINE    15     9, -0.0522642322, 0.497260958, 0.400000006      
                    10, -0.154508501, 0.47552827, 0.400000006       
                    11, -0.0554000847, 0.527096629, 0.400000006     
                    12, -0.163779005, 0.50405997, 0.400000006       
                    13, -0.0522642322, 0.497260958, 0.600000024     
     LINE    20     14, -0.154508501, 0.47552827, 0.600000024       
                    15, -0.0554000847, 0.527096629, 0.600000024     
                    16, -0.163779005, 0.50405997, 0.600000024       
                    17, -0.163779005, 0.50405997, 0.800000012       
                    18, -0.0554000847, 0.527096629, 0.800000012     
     LINE    25     19, -0.154508501, 0.47552827, 0.800000012       
                    20, -0.0522642322, 0.497260958, 0.800000012     
                    21, 0.0554000847, 0.527096629, 0.200000003      
                    22, 0.0554000847, 0.527096629, 0.400000006      
                    23, 0.0522642322, 0.497260958, 0.400000006      
     LINE    30     24, 0.0522642322, 0.497260958, 0.200000003      
                    25, 0.0522642322, 0.497260958, 0.600000024      
                    26, 0.0554000847, 0.527096629, 0.600000024      
                    27, 0.0554000847, 0.527096629, 0.800000012      
                    28, 0.0522642322, 0.497260958, 0.800000012      
     LINE    35     29, 0.0522642322, 0.497260958, 0
                    30, 0.0554000847, 0.527096629, 0
                    31, 0.163779005, 0.50405997, 0.200000003
                    32, 0.163779005, 0.50405997, 0  
                    33, 0.154508501, 0.47552827, 0.200000003
     LINE    40     34, 0.154508501, 0.47552827, 0  
                    35, 0.154508501, 0.47552827, 0.400000006
                    36, 0.163779005, 0.50405997, 0.400000006
                    37, 0.163779005, 0.50405997, 0.600000024
                    38, 0.154508501, 0.47552827, 0.600000024
     LINE    45     39, 0.154508501, 0.47552827, 0.800000012
                    40, 0.154508501, 0.47552827, 1  
                    41, 0.0522642322, 0.497260958, 1
                    42, 0.163779005, 0.50405997, 0.800000012
                    43, 0.163779005, 0.50405997, 1  
     LINE    50     44, 0.0554000847, 0.527096629, 1
                    45, -0.25, 0.433012694, 0.200000003     
                    46, -0.25, 0.433012694, 0       
                    47, -0.264999986, 0.458993465, 0.200000003      
                    48, -0.264999986, 0.458993465, 0
     LINE    55     49, -0.25, 0.433012694, 0.400000006     
                    50, -0.25, 0.433012694, 0.600000024     
                    51, -0.264999986, 0.458993465, 0.600000024      
                    52, -0.264999986, 0.458993465, 0.400000006      
                    53, -0.25, 0.433012694, 0.800000012     
     LINE    60     54, -0.154508501, 0.47552827, 1 
                    55, -0.25, 0.433012694, 1       
                    56, -0.163779005, 0.50405997, 1 
                    57, -0.264999986, 0.458993465, 1
                    58, -0.264999986, 0.458993465, 0.800000012      
     LINE    65     59, 0.25, 0.433012694, 0.200000003      
                    60, 0.25, 0.433012694, 0
                    61, 0.264999986, 0.458993465, 0 
                    62, 0.264999986, 0.458993465, 0.200000003       
                    63, 0.264999986, 0.458993465, 0.400000006       
     LINE    70     64, 0.25, 0.433012694, 0.400000006      
                    65, 0.264999986, 0.458993465, 0.600000024       
                    66, 0.264999986, 0.458993465, 0.800000012       
                    67, 0.25, 0.433012694, 0.800000012      
                    68, 0.25, 0.433012694, 0.600000024      
     LINE    75     69, -0.0554000847, 0.527096629, 1       
                    70, -0.0522642322, 0.497260958, 1       
                    71, 0.264999986, 0.458993465, 1 
                    72, 0.25, 0.433012694, 1
                    73, -0.0868240893, 0.492403865, 0.200000003     
     LINE    80     74, -0.120960951, 0.485147864, 0.200000003      
                    75, -0.154508501, 0.47552827, 0.159999996       
                    76, -0.154508501, 0.47552827, 0.119999997       
                    77, -0.154508501, 0.47552827, 0.0799999982      
                    78, -0.154508501, 0.47552827, 0.0399999991      
     LINE    85     79, -0.120960951, 0.485147864, 0
                    80, -0.0868240893, 0.492403865, 0       
                    81, -0.0522642322, 0.497260958, 0.0399999991    
                    82, -0.0522642322, 0.497260958, 0.0799999982    
                    83, -0.0522642322, 0.497260958, 0.119999997     
     LINE    90     84, -0.0522642322, 0.497260958, 0.159999996     
                    85, -0.128218606, 0.514256716, 0.200000003      
                    86, -0.0920335352, 0.521948099, 0.200000003     
                    87, -0.163779005, 0.50405997, 0.0399999991      
                    88, -0.163779005, 0.50405997, 0.0799999982      
     LINE    95     89, -0.163779005, 0.50405997, 0.119999997       
                    90, -0.163779005, 0.50405997, 0.159999996       
                    91, -0.0920335352, 0.521948099, 0       
                    92, -0.128218606, 0.514256716, 0
                    93, -0.0554000847, 0.527096629, 0.159999996     
     LINE   100     94, -0.0554000847, 0.527096629, 0.119999997     
                    95, -0.0554000847, 0.527096629, 0.0799999982    
                    96, -0.0554000847, 0.527096629, 0.0399999991    
                    97, -0.0530481935, 0.504719853, 0       
                    98, -0.0538321584, 0.512178779, 0       
     LINE   105     99, -0.0546161234, 0.519637704, 0       
                    100, -0.0546161234, 0.519637704, 0.200000003    
                    101, -0.0538321584, 0.512178779, 0.200000003    
                    102, -0.0530481935, 0.504719853, 0.200000003    
                    103, -0.156826124, 0.482661188, 0       
     LINE   110     104, -0.159143746, 0.489794105, 0       
                    105, -0.161461383, 0.496927023, 0       
                    106, -0.161461383, 0.496927023, 0.200000003     
                    107, -0.159143746, 0.489794105, 0.200000003     
                    108, -0.156826124, 0.482661188, 0.200000003     
     LINE   115     109, -0.0522642322, 0.497260958, 0.239999995    
                    110, -0.0522642322, 0.497260958, 0.280000001    
                    111, -0.0522642322, 0.497260958, 0.319999993    
                    112, -0.0522642322, 0.497260958, 0.360000014    
                    113, -0.0868240893, 0.492403865, 0.400000006    
     LINE   120     114, -0.120960951, 0.485147864, 0.400000006     
                    115, -0.154508501, 0.47552827, 0.360000014      
                    116, -0.154508501, 0.47552827, 0.319999993      
                    117, -0.154508501, 0.47552827, 0.280000001      
                    118, -0.154508501, 0.47552827, 0.239999995      
     LINE   125     119, -0.0554000847, 0.527096629, 0.360000014    
                    120, -0.0554000847, 0.527096629, 0.319999993    
                    121, -0.0554000847, 0.527096629, 0.280000001    
                    122, -0.0554000847, 0.527096629, 0.239999995    
                    123, -0.128218606, 0.514256716, 0.400000006     
     LINE   130     124, -0.0920335352, 0.521948099, 0.400000006    
                    125, -0.163779005, 0.50405997, 0.239999995      
                    126, -0.163779005, 0.50405997, 0.280000001      
                    127, -0.163779005, 0.50405997, 0.319999993      
                    128, -0.163779005, 0.50405997, 0.360000014      
     LINE   135     129, -0.161461383, 0.496927023, 0.400000006     
                    130, -0.159143746, 0.489794105, 0.400000006     
                    131, -0.156826124, 0.482661188, 0.400000006     
                    132, -0.0546161234, 0.519637704, 0.400000006    
                    133, -0.0538321584, 0.512178779, 0.400000006    
     LINE   140     134, -0.0530481935, 0.504719853, 0.400000006    
                    135, -0.0522642322, 0.497260958, 0.439999998    
                    136, -0.0522642322, 0.497260958, 0.479999989    
                    137, -0.0522642322, 0.497260958, 0.519999981    
                    138, -0.0522642322, 0.497260958, 0.560000002    
     LINE   145     139, -0.0868240893, 0.492403865, 0.600000024    
                    140, -0.120960951, 0.485147864, 0.600000024     
                    141, -0.154508501, 0.47552827, 0.560000002      
                    142, -0.154508501, 0.47552827, 0.519999981      
                    143, -0.154508501, 0.47552827, 0.479999989      
     LINE   150     144, -0.154508501, 0.47552827, 0.439999998      
                    145, -0.0554000847, 0.527096629, 0.560000002    
                    146, -0.0554000847, 0.527096629, 0.519999981    
                    147, -0.0554000847, 0.527096629, 0.479999989    
                    148, -0.0554000847, 0.527096629, 0.439999998    
     LINE   155     149, -0.128218606, 0.514256716, 0.600000024     
                    150, -0.0920335352, 0.521948099, 0.600000024    
                    151, -0.163779005, 0.50405997, 0.439999998      
                    152, -0.163779005, 0.50405997, 0.479999989      
                    153, -0.163779005, 0.50405997, 0.519999981      
     LINE   160     154, -0.163779005, 0.50405997, 0.560000002      
                    155, -0.161461383, 0.496927023, 0.600000024     
                    156, -0.159143746, 0.489794105, 0.600000024     
                    157, -0.156826124, 0.482661188, 0.600000024     
                    158, -0.0546161234, 0.519637704, 0.600000024    
     LINE   165     159, -0.0538321584, 0.512178779, 0.600000024    
                    160, -0.0530481935, 0.504719853, 0.600000024    
                    161, -0.163779005, 0.50405997, 0.639999986      
                    162, -0.163779005, 0.50405997, 0.680000007      
                    163, -0.163779005, 0.50405997, 0.720000029      
     LINE   170     164, -0.163779005, 0.50405997, 0.75999999       
                    165, -0.128218606, 0.514256716, 0.800000012     
                    166, -0.0920335352, 0.521948099, 0.800000012    
                    167, -0.0554000847, 0.527096629, 0.75999999     
                    168, -0.0554000847, 0.527096629, 0.720000029    
     LINE   175     169, -0.0554000847, 0.527096629, 0.680000007    
                    170, -0.0554000847, 0.527096629, 0.639999986    
                    171, -0.154508501, 0.47552827, 0.75999999       
                    172, -0.154508501, 0.47552827, 0.720000029      
                    173, -0.154508501, 0.47552827, 0.680000007      
     LINE   180     174, -0.154508501, 0.47552827, 0.639999986      
                    175, -0.0868240893, 0.492403865, 0.800000012    
                    176, -0.120960951, 0.485147864, 0.800000012     
                    177, -0.0522642322, 0.497260958, 0.639999986    
                    178, -0.0522642322, 0.497260958, 0.680000007    
     LINE   185     179, -0.0522642322, 0.497260958, 0.720000029    
                    180, -0.0522642322, 0.497260958, 0.75999999     
                    181, -0.0546161234, 0.519637704, 0.800000012    
                    182, -0.0538321584, 0.512178779, 0.800000012    
                    183, -0.0530481935, 0.504719853, 0.800000012    
     LINE   190     184, -0.161461383, 0.496927023, 0.800000012     
                    185, -0.159143746, 0.489794105, 0.800000012     
                    186, -0.156826124, 0.482661188, 0.800000012     
                    187, 0.0184967332, 0.529677153, 0.200000003     
                    188, -0.0184967332, 0.529677153, 0.200000003    
     LINE   195     189, -0.0184967332, 0.529677153, 0.400000006    
                    190, 0.0184967332, 0.529677153, 0.400000006     
                    191, 0.0554000847, 0.527096629, 0.360000014     
                    192, 0.0554000847, 0.527096629, 0.319999993     
                    193, 0.0554000847, 0.527096629, 0.280000001     
     LINE   200     194, 0.0554000847, 0.527096629, 0.239999995     
                    195, -0.0174497478, 0.49969542, 0.200000003     
                    196, 0.0174497478, 0.49969542, 0.200000003      
                    197, 0.0174497478, 0.49969542, 0.400000006      
                    198, -0.0174497478, 0.49969542, 0.400000006     
     LINE   205     199, 0.0522642322, 0.497260958, 0.239999995     
                    200, 0.0522642322, 0.497260958, 0.280000001     
                    201, 0.0522642322, 0.497260958, 0.319999993     
                    202, 0.0522642322, 0.497260958, 0.360000014     
                    203, 0.0546161234, 0.519637704, 0.400000006     
     LINE   210     204, 0.0538321584, 0.512178779, 0.400000006     
                    205, 0.0530481935, 0.504719853, 0.400000006     
                    206, 0.0530481935, 0.504719853, 0.200000003     
                    207, 0.0538321584, 0.512178779, 0.200000003     
                    208, 0.0546161234, 0.519637704, 0.200000003     
     LINE   215     209, 0.0522642322, 0.497260958, 0.439999998     
                    210, 0.0522642322, 0.497260958, 0.479999989     
                    211, 0.0522642322, 0.497260958, 0.519999981     
                    212, 0.0522642322, 0.497260958, 0.560000002     
                    213, 0.0174497478, 0.49969542, 0.600000024      
     LINE   220     214, -0.0174497478, 0.49969542, 0.600000024     
                    215, 0.0554000847, 0.527096629, 0.560000002     
                    216, 0.0554000847, 0.527096629, 0.519999981     
                    217, 0.0554000847, 0.527096629, 0.479999989     
                    218, 0.0554000847, 0.527096629, 0.439999998     
     LINE   225     219, -0.0184967332, 0.529677153, 0.600000024    
                    220, 0.0184967332, 0.529677153, 0.600000024     
                    221, 0.0546161234, 0.519637704, 0.600000024     
                    222, 0.0538321584, 0.512178779, 0.600000024     
                    223, 0.0530481935, 0.504719853, 0.600000024     
     LINE   230     224, -0.0184967332, 0.529677153, 0.800000012    
                    225, 0.0184967332, 0.529677153, 0.800000012     
                    226, 0.0554000847, 0.527096629, 0.75999999      
                    227, 0.0554000847, 0.527096629, 0.720000029     
                    228, 0.0554000847, 0.527096629, 0.680000007     
     LINE   235     229, 0.0554000847, 0.527096629, 0.639999986     
                    230, 0.0174497478, 0.49969542, 0.800000012      
                    231, -0.0174497478, 0.49969542, 0.800000012     
                    232, 0.0522642322, 0.497260958, 0.639999986     
                    233, 0.0522642322, 0.497260958, 0.680000007     
     LINE   240     234, 0.0522642322, 0.497260958, 0.720000029     
                    235, 0.0522642322, 0.497260958, 0.75999999      
                    236, 0.0546161234, 0.519637704, 0.800000012     
                    237, 0.0538321584, 0.512178779, 0.800000012     
                    238, 0.0530481935, 0.504719853, 0.800000012     
     LINE   245     239, -0.0174497478, 0.49969542, 0       
                    240, 0.0174497478, 0.49969542, 0
                    241, 0.0522642322, 0.497260958, 0.0399999991    
                    242, 0.0522642322, 0.497260958, 0.0799999982    
                    243, 0.0522642322, 0.497260958, 0.119999997     
     LINE   250     244, 0.0522642322, 0.497260958, 0.159999996     
                    245, 0.0184967332, 0.529677153, 0       
                    246, -0.0184967332, 0.529677153, 0      
                    247, 0.0554000847, 0.527096629, 0.159999996     
                    248, 0.0554000847, 0.527096629, 0.119999997     
     LINE   255     249, 0.0554000847, 0.527096629, 0.0799999982    
                    250, 0.0554000847, 0.527096629, 0.0399999991    
                    251, 0.0530481935, 0.504719853, 0       
                    252, 0.0538321584, 0.512178779, 0       
                    253, 0.0546161234, 0.519637704, 0       
     LINE   260     254, 0.0920335352, 0.521948099, 0.200000003     
                    255, 0.128218606, 0.514256716, 0.200000003      
                    256, 0.163779005, 0.50405997, 0.159999996       
                    257, 0.163779005, 0.50405997, 0.119999997       
                    258, 0.163779005, 0.50405997, 0.0799999982      
     LINE   265     259, 0.163779005, 0.50405997, 0.0399999991      
                    260, 0.128218606, 0.514256716, 0
                    261, 0.0920335352, 0.521948099, 0       
                    262, 0.120960951, 0.485147864, 0.200000003      
                    263, 0.0868240893, 0.492403865, 0.200000003     
     LINE   270     264, 0.154508501, 0.47552827, 0.0399999991      
                    265, 0.154508501, 0.47552827, 0.0799999982      
                    266, 0.154508501, 0.47552827, 0.119999997       
                    267, 0.154508501, 0.47552827, 0.159999996       
                    268, 0.0868240893, 0.492403865, 0       
     LINE   275     269, 0.120960951, 0.485147864, 0
                    270, 0.156826124, 0.482661188, 0
                    271, 0.159143746, 0.489794105, 0
                    272, 0.161461383, 0.496927023, 0
                    273, 0.161461383, 0.496927023, 0.200000003      
     LINE   280     274, 0.159143746, 0.489794105, 0.200000003      
                    275, 0.156826124, 0.482661188, 0.200000003      
                    276, 0.154508501, 0.47552827, 0.239999995       
                    277, 0.154508501, 0.47552827, 0.280000001       
                    278, 0.154508501, 0.47552827, 0.319999993       
     LINE   285     279, 0.154508501, 0.47552827, 0.360000014       
                    280, 0.120960951, 0.485147864, 0.400000006      
                    281, 0.0868240893, 0.492403865, 0.400000006     
                    282, 0.163779005, 0.50405997, 0.360000014       
                    283, 0.163779005, 0.50405997, 0.319999993       
     LINE   290     284, 0.163779005, 0.50405997, 0.280000001       
                    285, 0.163779005, 0.50405997, 0.239999995       
                    286, 0.0920335352, 0.521948099, 0.400000006     
                    287, 0.128218606, 0.514256716, 0.400000006      
                    288, 0.161461383, 0.496927023, 0.400000006      
     LINE   295     289, 0.159143746, 0.489794105, 0.400000006      
                    290, 0.156826124, 0.482661188, 0.400000006      
                    291, 0.0920335352, 0.521948099, 0.600000024     
                    292, 0.128218606, 0.514256716, 0.600000024      
                    293, 0.163779005, 0.50405997, 0.560000002       
     LINE   300     294, 0.163779005, 0.50405997, 0.519999981       
                    295, 0.163779005, 0.50405997, 0.479999989       
                    296, 0.163779005, 0.50405997, 0.439999998       
                    297, 0.120960951, 0.485147864, 0.600000024      
                    298, 0.0868240893, 0.492403865, 0.600000024     
     LINE   305     299, 0.154508501, 0.47552827, 0.439999998       
                    300, 0.154508501, 0.47552827, 0.479999989       
                    301, 0.154508501, 0.47552827, 0.519999981       
                    302, 0.154508501, 0.47552827, 0.560000002       
                    303, 0.161461383, 0.496927023, 0.600000024      
     LINE   310     304, 0.159143746, 0.489794105, 0.600000024      
                    305, 0.156826124, 0.482661188, 0.600000024      
                    306, 0.0868240893, 0.492403865, 0.800000012     
                    307, 0.120960951, 0.485147864, 0.800000012      
                    308, 0.154508501, 0.47552827, 0.839999974       
     LINE   315     309, 0.154508501, 0.47552827, 0.879999995       
                    310, 0.154508501, 0.47552827, 0.920000017       
                    311, 0.154508501, 0.47552827, 0.959999979       
                    312, 0.120960951, 0.485147864, 1
                    313, 0.0868240893, 0.492403865, 1       
     LINE   320     314, 0.0522642322, 0.497260958, 0.959999979     
                    315, 0.0522642322, 0.497260958, 0.920000017     
                    316, 0.0522642322, 0.497260958, 0.879999995     
                    317, 0.0522642322, 0.497260958, 0.839999974     
                    318, 0.128218606, 0.514256716, 0.800000012      
     LINE   325     319, 0.0920335352, 0.521948099, 0.800000012     
                    320, 0.163779005, 0.50405997, 0.959999979       
                    321, 0.163779005, 0.50405997, 0.920000017       
                    322, 0.163779005, 0.50405997, 0.879999995       
                    323, 0.163779005, 0.50405997, 0.839999974       
     LINE   330     324, 0.0920335352, 0.521948099, 1       
                    325, 0.128218606, 0.514256716, 1
                    326, 0.0554000847, 0.527096629, 0.839999974     
                    327, 0.0554000847, 0.527096629, 0.879999995     
                    328, 0.0554000847, 0.527096629, 0.920000017     
     LINE   335     329, 0.0554000847, 0.527096629, 0.959999979     
                    330, 0.0546161234, 0.519637704, 1       
                    331, 0.0538321584, 0.512178779, 1       
                    332, 0.0530481935, 0.504719853, 1       
                    333, 0.161461383, 0.496927023, 1
     LINE   340     334, 0.159143746, 0.489794105, 1
                    335, 0.156826124, 0.482661188, 1
                    336, 0.156826124, 0.482661188, 0.800000012      
                    337, 0.159143746, 0.489794105, 0.800000012      
                    338, 0.161461383, 0.496927023, 0.800000012      
     LINE   345     339, -0.18730329, 0.463591933, 0.200000003      
                    340, -0.219185576, 0.449397027, 0.200000003     
                    341, -0.25, 0.433012694, 0.159999996    
                    342, -0.25, 0.433012694, 0.119999997    
                    343, -0.25, 0.433012694, 0.0799999982   
     LINE   350     344, -0.25, 0.433012694, 0.0399999991   
                    345, -0.219185576, 0.449397027, 0       
                    346, -0.18730329, 0.463591933, 0
                    347, -0.232336715, 0.476360857, 0.200000003     
                    348, -0.198541492, 0.491407454, 0.200000003     
     LINE   355     349, -0.264999986, 0.458993465, 0.0399999991    
                    350, -0.264999986, 0.458993465, 0.0799999982    
                    351, -0.264999986, 0.458993465, 0.119999997     
                    352, -0.264999986, 0.458993465, 0.159999996     
                    353, -0.198541492, 0.491407454, 0       
     LINE   360     354, -0.232336715, 0.476360857, 0       
                    355, -0.261249989, 0.452498287, 0       
                    356, -0.257499993, 0.446003079, 0       
                    357, -0.253749996, 0.439507902, 0       
                    358, -0.253749996, 0.439507902, 0.200000003     
     LINE   365     359, -0.257499993, 0.446003079, 0.200000003     
                    360, -0.261249989, 0.452498287, 0.200000003     
                    361, -0.219185576, 0.449397027, 0.400000006     
                    362, -0.18730329, 0.463591933, 0.400000006      
                    363, -0.18730329, 0.463591933, 0.600000024      
     LINE   370     364, -0.219185576, 0.449397027, 0.600000024     
                    365, -0.25, 0.433012694, 0.560000002    
                    366, -0.25, 0.433012694, 0.519999981    
                    367, -0.25, 0.433012694, 0.479999989    
                    368, -0.25, 0.433012694, 0.439999998    
     LINE   375     369, -0.198541492, 0.491407454, 0.400000006     
                    370, -0.232336715, 0.476360857, 0.400000006     
                    371, -0.232336715, 0.476360857, 0.600000024     
                    372, -0.198541492, 0.491407454, 0.600000024     
                    373, -0.264999986, 0.458993465, 0.439999998     
     LINE   380     374, -0.264999986, 0.458993465, 0.479999989     
                    375, -0.264999986, 0.458993465, 0.519999981     
                    376, -0.264999986, 0.458993465, 0.560000002     
                    377, -0.253749996, 0.439507902, 0.600000024     
                    378, -0.257499993, 0.446003079, 0.600000024     
     LINE   385     379, -0.261249989, 0.452498287, 0.600000024     
                    380, -0.261249989, 0.452498287, 0.400000006     
                    381, -0.257499993, 0.446003079, 0.400000006     
                    382, -0.253749996, 0.439507902, 0.400000006     
                    383, -0.264999986, 0.458993465, 0.239999995     
     LINE   390     384, -0.264999986, 0.458993465, 0.280000001     
                    385, -0.264999986, 0.458993465, 0.319999993     
                    386, -0.264999986, 0.458993465, 0.360000014     
                    387, -0.25, 0.433012694, 0.360000014    
                    388, -0.25, 0.433012694, 0.319999993    
     LINE   395     389, -0.25, 0.433012694, 0.280000001    
                    390, -0.25, 0.433012694, 0.239999995    
                    391, -0.219185576, 0.449397027, 0.800000012     
                    392, -0.18730329, 0.463591933, 0.800000012      
                    393, -0.154508501, 0.47552827, 0.839999974      
     LINE   400     394, -0.154508501, 0.47552827, 0.879999995      
                    395, -0.154508501, 0.47552827, 0.920000017      
                    396, -0.154508501, 0.47552827, 0.959999979      
                    397, -0.18730329, 0.463591933, 1
                    398, -0.219185576, 0.449397027, 1       
     LINE   405     399, -0.25, 0.433012694, 0.959999979    
                    400, -0.25, 0.433012694, 0.920000017    
                    401, -0.25, 0.433012694, 0.879999995    
                    402, -0.25, 0.433012694, 0.839999974    
                    403, -0.198541492, 0.491407454, 0.800000012     
     LINE   410     404, -0.232336715, 0.476360857, 0.800000012     
                    405, -0.163779005, 0.50405997, 0.959999979      
                    406, -0.163779005, 0.50405997, 0.920000017      
                    407, -0.163779005, 0.50405997, 0.879999995      
                    408, -0.163779005, 0.50405997, 0.839999974      
     LINE   415     409, -0.232336715, 0.476360857, 1       
                    410, -0.198541492, 0.491407454, 1       
                    411, -0.264999986, 0.458993465, 0.839999974     
                    412, -0.264999986, 0.458993465, 0.879999995     
                    413, -0.264999986, 0.458993465, 0.920000017     
     LINE   420     414, -0.264999986, 0.458993465, 0.959999979     
                    415, -0.253749996, 0.439507902, 1       
                    416, -0.257499993, 0.446003079, 1       
                    417, -0.261249989, 0.452498287, 1       
                    418, -0.261249989, 0.452498287, 0.800000012     
     LINE   425     419, -0.257499993, 0.446003079, 0.800000012     
                    420, -0.253749996, 0.439507902, 0.800000012     
                    421, -0.161461383, 0.496927023, 1       
                    422, -0.159143746, 0.489794105, 1       
                    423, -0.156826124, 0.482661188, 1       
     LINE   430     424, 0.219185576, 0.449397027, 0.200000003      
                    425, 0.18730329, 0.463591933, 0.200000003       
                    426, 0.18730329, 0.463591933, 0 
                    427, 0.219185576, 0.449397027, 0
                    428, 0.25, 0.433012694, 0.0399999991    
     LINE   435     429, 0.25, 0.433012694, 0.0799999982    
                    430, 0.25, 0.433012694, 0.119999997     
                    431, 0.25, 0.433012694, 0.159999996     
                    432, 0.198541492, 0.491407454, 0.200000003      
                    433, 0.232336715, 0.476360857, 0.200000003      
     LINE   440     434, 0.232336715, 0.476360857, 0
                    435, 0.198541492, 0.491407454, 0
                    436, 0.264999986, 0.458993465, 0.159999996      
                    437, 0.264999986, 0.458993465, 0.119999997      
                    438, 0.264999986, 0.458993465, 0.0799999982     
     LINE   445     439, 0.264999986, 0.458993465, 0.0399999991     
                    440, 0.253749996, 0.439507902, 0
                    441, 0.257499993, 0.446003079, 0
                    442, 0.261249989, 0.452498287, 0
                    443, 0.261249989, 0.452498287, 0.200000003      
     LINE   450     444, 0.257499993, 0.446003079, 0.200000003      
                    445, 0.253749996, 0.439507902, 0.200000003      
                    446, 0.198541492, 0.491407454, 0.400000006      
                    447, 0.232336715, 0.476360857, 0.400000006      
                    448, 0.264999986, 0.458993465, 0.360000014      
     LINE   455     449, 0.264999986, 0.458993465, 0.319999993      
                    450, 0.264999986, 0.458993465, 0.280000001      
                    451, 0.264999986, 0.458993465, 0.239999995      
                    452, 0.219185576, 0.449397027, 0.400000006      
                    453, 0.18730329, 0.463591933, 0.400000006       
     LINE   460     454, 0.25, 0.433012694, 0.239999995     
                    455, 0.25, 0.433012694, 0.280000001     
                    456, 0.25, 0.433012694, 0.319999993     
                    457, 0.25, 0.433012694, 0.360000014     
                    458, 0.261249989, 0.452498287, 0.400000006      
     LINE   465     459, 0.257499993, 0.446003079, 0.400000006      
                    460, 0.253749996, 0.439507902, 0.400000006      
                    461, 0.232336715, 0.476360857, 0.600000024      
                    462, 0.198541492, 0.491407454, 0.600000024      
                    463, 0.163779005, 0.50405997, 0.639999986       
     LINE   470     464, 0.163779005, 0.50405997, 0.680000007       
                    465, 0.163779005, 0.50405997, 0.720000029       
                    466, 0.163779005, 0.50405997, 0.75999999
                    467, 0.198541492, 0.491407454, 0.800000012      
                    468, 0.232336715, 0.476360857, 0.800000012      
     LINE   475     469, 0.264999986, 0.458993465, 0.75999999       
                    470, 0.264999986, 0.458993465, 0.720000029      
                    471, 0.264999986, 0.458993465, 0.680000007      
                    472, 0.264999986, 0.458993465, 0.639999986      
                    473, 0.18730329, 0.463591933, 0.600000024       
     LINE   480     474, 0.219185576, 0.449397027, 0.600000024      
                    475, 0.154508501, 0.47552827, 0.75999999
                    476, 0.154508501, 0.47552827, 0.720000029       
                    477, 0.154508501, 0.47552827, 0.680000007       
                    478, 0.154508501, 0.47552827, 0.639999986       
     LINE   485     479, 0.219185576, 0.449397027, 0.800000012      
                    480, 0.18730329, 0.463591933, 0.800000012       
                    481, 0.25, 0.433012694, 0.639999986     
                    482, 0.25, 0.433012694, 0.680000007     
                    483, 0.25, 0.433012694, 0.720000029     
     LINE   490     484, 0.25, 0.433012694, 0.75999999      
                    485, 0.261249989, 0.452498287, 0.800000012      
                    486, 0.257499993, 0.446003079, 0.800000012      
                    487, 0.253749996, 0.439507902, 0.800000012      
                    488, 0.253749996, 0.439507902, 0.600000024      
     LINE   495     489, 0.257499993, 0.446003079, 0.600000024      
                    490, 0.261249989, 0.452498287, 0.600000024      
                    491, 0.25, 0.433012694, 0.439999998     
                    492, 0.25, 0.433012694, 0.479999989     
                    493, 0.25, 0.433012694, 0.519999981     
     LINE   500     494, 0.25, 0.433012694, 0.560000002     
                    495, 0.264999986, 0.458993465, 0.560000002      
                    496, 0.264999986, 0.458993465, 0.519999981      
                    497, 0.264999986, 0.458993465, 0.479999989      
                    498, 0.264999986, 0.458993465, 0.439999998      
     LINE   505     499, -0.264999986, 0.458993465, 0.639999986     
                    500, -0.264999986, 0.458993465, 0.680000007     
                    501, -0.264999986, 0.458993465, 0.720000029     
                    502, -0.264999986, 0.458993465, 0.75999999      
                    503, -0.25, 0.433012694, 0.75999999     
     LINE   510     504, -0.25, 0.433012694, 0.720000029    
                    505, -0.25, 0.433012694, 0.680000007    
                    506, -0.25, 0.433012694, 0.639999986    
                    507, -0.0554000847, 0.527096629, 0.839999974    
                    508, -0.0554000847, 0.527096629, 0.879999995    
     LINE   515     509, -0.0554000847, 0.527096629, 0.920000017    
                    510, -0.0554000847, 0.527096629, 0.959999979    
                    511, -0.0184967332, 0.529677153, 1      
                    512, 0.0184967332, 0.529677153, 1       
                    513, -0.0522642322, 0.497260958, 0.959999979    
     LINE   520     514, -0.0522642322, 0.497260958, 0.920000017    
                    515, -0.0522642322, 0.497260958, 0.879999995    
                    516, -0.0522642322, 0.497260958, 0.839999974    
                    517, 0.0174497478, 0.49969542, 1
                    518, -0.0174497478, 0.49969542, 1       
     LINE   525     519, -0.0546161234, 0.519637704, 1      
                    520, -0.0538321584, 0.512178779, 1      
                    521, -0.0530481935, 0.504719853, 1      
                    522, -0.0868240893, 0.492403865, 1      
                    523, -0.120960951, 0.485147864, 1       
     LINE   530     524, -0.128218606, 0.514256716, 1       
                    525, -0.0920335352, 0.521948099, 1      
                    526, 0.198541492, 0.491407454, 1
                    527, 0.232336715, 0.476360857, 1
                    528, 0.264999986, 0.458993465, 0.959999979      
     LINE   535     529, 0.264999986, 0.458993465, 0.920000017      
                    530, 0.264999986, 0.458993465, 0.879999995      
                    531, 0.264999986, 0.458993465, 0.839999974      
                    532, 0.219185576, 0.449397027, 1
                    533, 0.18730329, 0.463591933, 1 
     LINE   540     534, 0.25, 0.433012694, 0.839999974     
                    535, 0.25, 0.433012694, 0.879999995     
                    536, 0.25, 0.433012694, 0.920000017     
                    537, 0.25, 0.433012694, 0.959999979     
                    538, 0.261249989, 0.452498287, 1
     LINE   545     539, 0.257499993, 0.446003079, 1
                    540, 0.253749996, 0.439507902, 1
                    541, -0.0868240893, 0.492403865, 0.159999996    
                    542, -0.120960951, 0.485147864, 0.159999996     
                    543, -0.0868240893, 0.492403865, 0.119999997    
     LINE   550     544, -0.120960951, 0.485147864, 0.119999997     
                    545, -0.0868240893, 0.492403865, 0.0799999982   
                    546, -0.120960951, 0.485147864, 0.0799999982    
                    547, -0.0868240893, 0.492403865, 0.0399999991   
                    548, -0.120960951, 0.485147864, 0.0399999991    
     LINE   555     549, -0.0920335352, 0.521948099, 0.159999996    
                    550, -0.128218606, 0.514256716, 0.159999996     
                    551, -0.0920335352, 0.521948099, 0.119999997    
                    552, -0.128218606, 0.514256716, 0.119999997     
                    553, -0.0920335352, 0.521948099, 0.0799999982   
     LINE   560     554, -0.128218606, 0.514256716, 0.0799999982    
                    555, -0.0920335352, 0.521948099, 0.0399999991   
                    556, -0.128218606, 0.514256716, 0.0399999991    
                    557, -0.0530481935, 0.504719853, 0.159999996    
                    558, -0.0530481935, 0.504719853, 0.119999997    
     LINE   565     559, -0.0530481935, 0.504719853, 0.0799999982   
                    560, -0.0530481935, 0.504719853, 0.0399999991   
                    561, -0.0538321584, 0.512178779, 0.159999996    
                    562, -0.0538321584, 0.512178779, 0.119999997    
                    563, -0.0538321584, 0.512178779, 0.0799999982   
     LINE   570     564, -0.0538321584, 0.512178779, 0.0399999991   
                    565, -0.0546161234, 0.519637704, 0.159999996    
                    566, -0.0546161234, 0.519637704, 0.119999997    
                    567, -0.0546161234, 0.519637704, 0.0799999982   
                    568, -0.0546161234, 0.519637704, 0.0399999991   
     LINE   575     569, -0.156826124, 0.482661188, 0.159999996     
                    570, -0.156826124, 0.482661188, 0.119999997     
                    571, -0.156826124, 0.482661188, 0.0799999982    
                    572, -0.156826124, 0.482661188, 0.0399999991    
                    573, -0.159143746, 0.489794105, 0.159999996     
     LINE   580     574, -0.159143746, 0.489794105, 0.119999997     
                    575, -0.159143746, 0.489794105, 0.0799999982    
                    576, -0.159143746, 0.489794105, 0.0399999991    
                    577, -0.161461383, 0.496927023, 0.159999996     
                    578, -0.161461383, 0.496927023, 0.119999997     
     LINE   585     579, -0.161461383, 0.496927023, 0.0799999982    
                    580, -0.161461383, 0.496927023, 0.0399999991    
                    581, -0.0881264508, 0.499789923, 0.200000003    
                    582, -0.122775361, 0.492425084, 0.200000003     
                    583, -0.0894288123, 0.507175982, 0.200000003    
     LINE   590     584, -0.124589778, 0.499702305, 0.200000003     
                    585, -0.0907311738, 0.51456207, 0.200000003     
                    586, -0.126404196, 0.506979525, 0.200000003     
                    587, -0.0881264508, 0.499789923, 0      
                    588, -0.122775361, 0.492425084, 0       
     LINE   595     589, -0.0894288123, 0.507175982, 0      
                    590, -0.124589778, 0.499702305, 0       
                    591, -0.0907311738, 0.51456207, 0       
                    592, -0.126404196, 0.506979525, 0       
                    593, -0.120960951, 0.485147864, 0.239999995     
     LINE   600     594, -0.0868240893, 0.492403865, 0.239999995    
                    595, -0.120960951, 0.485147864, 0.280000001     
                    596, -0.0868240893, 0.492403865, 0.280000001    
                    597, -0.120960951, 0.485147864, 0.319999993     
                    598, -0.0868240893, 0.492403865, 0.319999993    
     LINE   605     599, -0.120960951, 0.485147864, 0.360000014     
                    600, -0.0868240893, 0.492403865, 0.360000014    
                    601, -0.128218606, 0.514256716, 0.239999995     
                    602, -0.0920335352, 0.521948099, 0.239999995    
                    603, -0.128218606, 0.514256716, 0.280000001     
     LINE   610     604, -0.0920335352, 0.521948099, 0.280000001    
                    605, -0.128218606, 0.514256716, 0.319999993     
                    606, -0.0920335352, 0.521948099, 0.319999993    
                    607, -0.128218606, 0.514256716, 0.360000014     
                    608, -0.0920335352, 0.521948099, 0.360000014    
     LINE   615     609, -0.156826124, 0.482661188, 0.239999995     
                    610, -0.156826124, 0.482661188, 0.280000001     
                    611, -0.156826124, 0.482661188, 0.319999993     
                    612, -0.156826124, 0.482661188, 0.360000014     
                    613, -0.159143746, 0.489794105, 0.239999995     
     LINE   620     614, -0.159143746, 0.489794105, 0.280000001     
                    615, -0.159143746, 0.489794105, 0.319999993     
                    616, -0.159143746, 0.489794105, 0.360000014     
                    617, -0.161461383, 0.496927023, 0.239999995     
                    618, -0.161461383, 0.496927023, 0.280000001     
     LINE   625     619, -0.161461383, 0.496927023, 0.319999993     
                    620, -0.161461383, 0.496927023, 0.360000014     
                    621, -0.0530481935, 0.504719853, 0.239999995    
                    622, -0.0530481935, 0.504719853, 0.280000001    
                    623, -0.0530481935, 0.504719853, 0.319999993    
     LINE   630     624, -0.0530481935, 0.504719853, 0.360000014    
                    625, -0.0538321584, 0.512178779, 0.239999995    
                    626, -0.0538321584, 0.512178779, 0.280000001    
                    627, -0.0538321584, 0.512178779, 0.319999993    
                    628, -0.0538321584, 0.512178779, 0.360000014    
     LINE   635     629, -0.0546161234, 0.519637704, 0.239999995    
                    630, -0.0546161234, 0.519637704, 0.280000001    
                    631, -0.0546161234, 0.519637704, 0.319999993    
                    632, -0.0546161234, 0.519637704, 0.360000014    
                    633, -0.122775361, 0.492425084, 0.400000006     
     LINE   640     634, -0.0881264508, 0.499789923, 0.400000006    
                    635, -0.124589778, 0.499702305, 0.400000006     
                    636, -0.0894288123, 0.507175982, 0.400000006    
                    637, -0.126404196, 0.506979525, 0.400000006     
                    638, -0.0907311738, 0.51456207, 0.400000006     
     LINE   645     639, -0.120960951, 0.485147864, 0.439999998     
                    640, -0.0868240893, 0.492403865, 0.439999998    
                    641, -0.120960951, 0.485147864, 0.479999989     
                    642, -0.0868240893, 0.492403865, 0.479999989    
                    643, -0.120960951, 0.485147864, 0.519999981     
     LINE   650     644, -0.0868240893, 0.492403865, 0.519999981    
                    645, -0.120960951, 0.485147864, 0.560000002     
                    646, -0.0868240893, 0.492403865, 0.560000002    
                    647, -0.128218606, 0.514256716, 0.439999998     
                    648, -0.0920335352, 0.521948099, 0.439999998    
     LINE   655     649, -0.128218606, 0.514256716, 0.479999989     
                    650, -0.0920335352, 0.521948099, 0.479999989    
                    651, -0.128218606, 0.514256716, 0.519999981     
                    652, -0.0920335352, 0.521948099, 0.519999981    
                    653, -0.128218606, 0.514256716, 0.560000002     
     LINE   660     654, -0.0920335352, 0.521948099, 0.560000002    
                    655, -0.156826124, 0.482661188, 0.439999998     
                    656, -0.156826124, 0.482661188, 0.479999989     
                    657, -0.156826124, 0.482661188, 0.519999981     
                    658, -0.156826124, 0.482661188, 0.560000002     
     LINE   665     659, -0.159143746, 0.489794105, 0.439999998     
                    660, -0.159143746, 0.489794105, 0.479999989     
                    661, -0.159143746, 0.489794105, 0.519999981     
                    662, -0.159143746, 0.489794105, 0.560000002     
                    663, -0.161461383, 0.496927023, 0.439999998     
     LINE   670     664, -0.161461383, 0.496927023, 0.479999989     
                    665, -0.161461383, 0.496927023, 0.519999981     
                    666, -0.161461383, 0.496927023, 0.560000002     
                    667, -0.0530481935, 0.504719853, 0.439999998    
                    668, -0.0530481935, 0.504719853, 0.479999989    
     LINE   675     669, -0.0530481935, 0.504719853, 0.519999981    
                    670, -0.0530481935, 0.504719853, 0.560000002    
                    671, -0.0538321584, 0.512178779, 0.439999998    
                    672, -0.0538321584, 0.512178779, 0.479999989    
                    673, -0.0538321584, 0.512178779, 0.519999981    
     LINE   680     674, -0.0538321584, 0.512178779, 0.560000002    
                    675, -0.0546161234, 0.519637704, 0.439999998    
                    676, -0.0546161234, 0.519637704, 0.479999989    
                    677, -0.0546161234, 0.519637704, 0.519999981    
                    678, -0.0546161234, 0.519637704, 0.560000002    
     LINE   685     679, -0.122775361, 0.492425084, 0.600000024     
                    680, -0.0881264508, 0.499789923, 0.600000024    
                    681, -0.124589778, 0.499702305, 0.600000024     
                    682, -0.0894288123, 0.507175982, 0.600000024    
                    683, -0.126404196, 0.506979525, 0.600000024     
     LINE   690     684, -0.0907311738, 0.51456207, 0.600000024     
                    685, -0.0920335352, 0.521948099, 0.639999986    
                    686, -0.128218606, 0.514256716, 0.639999986     
                    687, -0.0920335352, 0.521948099, 0.680000007    
                    688, -0.128218606, 0.514256716, 0.680000007     
     LINE   695     689, -0.0920335352, 0.521948099, 0.720000029    
                    690, -0.128218606, 0.514256716, 0.720000029     
                    691, -0.0920335352, 0.521948099, 0.75999999     
                    692, -0.128218606, 0.514256716, 0.75999999      
                    693, -0.0868240893, 0.492403865, 0.639999986    
     LINE   700     694, -0.120960951, 0.485147864, 0.639999986     
                    695, -0.0868240893, 0.492403865, 0.680000007    
                    696, -0.120960951, 0.485147864, 0.680000007     
                    697, -0.0868240893, 0.492403865, 0.720000029    
                    698, -0.120960951, 0.485147864, 0.720000029     
     LINE   705     699, -0.0868240893, 0.492403865, 0.75999999     
                    700, -0.120960951, 0.485147864, 0.75999999      
                    701, -0.0546161234, 0.519637704, 0.639999986    
                    702, -0.0546161234, 0.519637704, 0.680000007    
                    703, -0.0546161234, 0.519637704, 0.720000029    
     LINE   710     704, -0.0546161234, 0.519637704, 0.75999999     
                    705, -0.0538321584, 0.512178779, 0.639999986    
                    706, -0.0538321584, 0.512178779, 0.680000007    
                    707, -0.0538321584, 0.512178779, 0.720000029    
                    708, -0.0538321584, 0.512178779, 0.75999999     
     LINE   715     709, -0.0530481935, 0.504719853, 0.639999986    
                    710, -0.0530481935, 0.504719853, 0.680000007    
                    711, -0.0530481935, 0.504719853, 0.720000029    
                    712, -0.0530481935, 0.504719853, 0.75999999     
                    713, -0.161461383, 0.496927023, 0.639999986     
     LINE   720     714, -0.161461383, 0.496927023, 0.680000007     
                    715, -0.161461383, 0.496927023, 0.720000029     
                    716, -0.161461383, 0.496927023, 0.75999999      
                    717, -0.159143746, 0.489794105, 0.639999986     
                    718, -0.159143746, 0.489794105, 0.680000007     
     LINE   725     719, -0.159143746, 0.489794105, 0.720000029     
                    720, -0.159143746, 0.489794105, 0.75999999      
                    721, -0.156826124, 0.482661188, 0.639999986     
                    722, -0.156826124, 0.482661188, 0.680000007     
                    723, -0.156826124, 0.482661188, 0.720000029     
     LINE   730     724, -0.156826124, 0.482661188, 0.75999999      
                    725, -0.0907311738, 0.51456207, 0.800000012     
                    726, -0.126404196, 0.506979525, 0.800000012     
                    727, -0.0894288123, 0.507175982, 0.800000012    
                    728, -0.124589778, 0.499702305, 0.800000012     
     LINE   735     729, -0.0881264508, 0.499789923, 0.800000012    
                    730, -0.122775361, 0.492425084, 0.800000012     
                    731, 0.0184967332, 0.529677153, 0.239999995     
                    732, -0.0184967332, 0.529677153, 0.239999995    
                    733, 0.0184967332, 0.529677153, 0.280000001     
     LINE   740     734, -0.0184967332, 0.529677153, 0.280000001    
                    735, 0.0184967332, 0.529677153, 0.319999993     
                    736, -0.0184967332, 0.529677153, 0.319999993    
                    737, 0.0184967332, 0.529677153, 0.360000014     
                    738, -0.0184967332, 0.529677153, 0.360000014    
     LINE   745     739, 0.0174497478, 0.49969542, 0.239999995      
                    740, -0.0174497478, 0.49969542, 0.239999995     
                    741, 0.0174497478, 0.49969542, 0.280000001      
                    742, -0.0174497478, 0.49969542, 0.280000001     
                    743, 0.0174497478, 0.49969542, 0.319999993      
     LINE   750     744, -0.0174497478, 0.49969542, 0.319999993     
                    745, 0.0174497478, 0.49969542, 0.360000014      
                    746, -0.0174497478, 0.49969542, 0.360000014     
                    747, 0.0546161234, 0.519637704, 0.239999995     
                    748, 0.0546161234, 0.519637704, 0.280000001     
     LINE   755     749, 0.0546161234, 0.519637704, 0.319999993     
                    750, 0.0546161234, 0.519637704, 0.360000014     
                    751, 0.0538321584, 0.512178779, 0.239999995     
                    752, 0.0538321584, 0.512178779, 0.280000001     
                    753, 0.0538321584, 0.512178779, 0.319999993     
     LINE   760     754, 0.0538321584, 0.512178779, 0.360000014     
                    755, 0.0530481935, 0.504719853, 0.239999995     
                    756, 0.0530481935, 0.504719853, 0.280000001     
                    757, 0.0530481935, 0.504719853, 0.319999993     
                    758, 0.0530481935, 0.504719853, 0.360000014     
     LINE   765     759, 0.0182349868, 0.52218169, 0.200000003      
                    760, -0.0182349868, 0.52218169, 0.200000003     
                    761, 0.0179732405, 0.514686286, 0.200000003     
                    762, -0.0179732405, 0.514686286, 0.200000003    
                    763, 0.0177114941, 0.507190824, 0.200000003     
     LINE   770     764, -0.0177114941, 0.507190824, 0.200000003    
                    765, 0.0182349868, 0.52218169, 0.400000006      
                    766, -0.0182349868, 0.52218169, 0.400000006     
                    767, 0.0179732405, 0.514686286, 0.400000006     
                    768, -0.0179732405, 0.514686286, 0.400000006    
     LINE   775     769, 0.0177114941, 0.507190824, 0.400000006     
                    770, -0.0177114941, 0.507190824, 0.400000006    
                    771, -0.0174497478, 0.49969542, 0.439999998     
                    772, 0.0174497478, 0.49969542, 0.439999998      
                    773, -0.0174497478, 0.49969542, 0.479999989     
     LINE   780     774, 0.0174497478, 0.49969542, 0.479999989      
                    775, -0.0174497478, 0.49969542, 0.519999981     
                    776, 0.0174497478, 0.49969542, 0.519999981      
                    777, -0.0174497478, 0.49969542, 0.560000002     
                    778, 0.0174497478, 0.49969542, 0.560000002      
     LINE   785     779, -0.0184967332, 0.529677153, 0.439999998    
                    780, 0.0184967332, 0.529677153, 0.439999998     
                    781, -0.0184967332, 0.529677153, 0.479999989    
                    782, 0.0184967332, 0.529677153, 0.479999989     
                    783, -0.0184967332, 0.529677153, 0.519999981    
     LINE   790     784, 0.0184967332, 0.529677153, 0.519999981     
                    785, -0.0184967332, 0.529677153, 0.560000002    
                    786, 0.0184967332, 0.529677153, 0.560000002     
                    787, 0.0530481935, 0.504719853, 0.439999998     
                    788, 0.0530481935, 0.504719853, 0.479999989     
     LINE   795     789, 0.0530481935, 0.504719853, 0.519999981     
                    790, 0.0530481935, 0.504719853, 0.560000002     
                    791, 0.0538321584, 0.512178779, 0.439999998     
                    792, 0.0538321584, 0.512178779, 0.479999989     
                    793, 0.0538321584, 0.512178779, 0.519999981     
     LINE   800     794, 0.0538321584, 0.512178779, 0.560000002     
                    795, 0.0546161234, 0.519637704, 0.439999998     
                    796, 0.0546161234, 0.519637704, 0.479999989     
                    797, 0.0546161234, 0.519637704, 0.519999981     
                    798, 0.0546161234, 0.519637704, 0.560000002     
     LINE   805     799, -0.0177114941, 0.507190824, 0.600000024    
                    800, 0.0177114941, 0.507190824, 0.600000024     
                    801, -0.0179732405, 0.514686286, 0.600000024    
                    802, 0.0179732405, 0.514686286, 0.600000024     
                    803, -0.0182349868, 0.52218169, 0.600000024     
     LINE   810     804, 0.0182349868, 0.52218169, 0.600000024      
                    805, 0.0184967332, 0.529677153, 0.639999986     
                    806, -0.0184967332, 0.529677153, 0.639999986    
                    807, 0.0184967332, 0.529677153, 0.680000007     
                    808, -0.0184967332, 0.529677153, 0.680000007    
     LINE   815     809, 0.0184967332, 0.529677153, 0.720000029     
                    810, -0.0184967332, 0.529677153, 0.720000029    
                    811, 0.0184967332, 0.529677153, 0.75999999      
                    812, -0.0184967332, 0.529677153, 0.75999999     
                    813, 0.0174497478, 0.49969542, 0.639999986      
     LINE   820     814, -0.0174497478, 0.49969542, 0.639999986     
                    815, 0.0174497478, 0.49969542, 0.680000007      
                    816, -0.0174497478, 0.49969542, 0.680000007     
                    817, 0.0174497478, 0.49969542, 0.720000029      
                    818, -0.0174497478, 0.49969542, 0.720000029     
     LINE   825     819, 0.0174497478, 0.49969542, 0.75999999       
                    820, -0.0174497478, 0.49969542, 0.75999999      
                    821, 0.0546161234, 0.519637704, 0.639999986     
                    822, 0.0546161234, 0.519637704, 0.680000007     
                    823, 0.0546161234, 0.519637704, 0.720000029     
     LINE   830     824, 0.0546161234, 0.519637704, 0.75999999      
                    825, 0.0538321584, 0.512178779, 0.639999986     
                    826, 0.0538321584, 0.512178779, 0.680000007     
                    827, 0.0538321584, 0.512178779, 0.720000029     
                    828, 0.0538321584, 0.512178779, 0.75999999      
     LINE   835     829, 0.0530481935, 0.504719853, 0.639999986     
                    830, 0.0530481935, 0.504719853, 0.680000007     
                    831, 0.0530481935, 0.504719853, 0.720000029     
                    832, 0.0530481935, 0.504719853, 0.75999999      
                    833, 0.0182349868, 0.52218169, 0.800000012      
     LINE   840     834, -0.0182349868, 0.52218169, 0.800000012     
                    835, 0.0179732405, 0.514686286, 0.800000012     
                    836, -0.0179732405, 0.514686286, 0.800000012    
                    837, 0.0177114941, 0.507190824, 0.800000012     
                    838, -0.0177114941, 0.507190824, 0.800000012    
     LINE   845     839, 0.0174497478, 0.49969542, 0.159999996      
                    840, -0.0174497478, 0.49969542, 0.159999996     
                    841, 0.0174497478, 0.49969542, 0.119999997      
                    842, -0.0174497478, 0.49969542, 0.119999997     
                    843, 0.0174497478, 0.49969542, 0.0799999982     
     LINE   850     844, -0.0174497478, 0.49969542, 0.0799999982    
                    845, 0.0174497478, 0.49969542, 0.0399999991     
                    846, -0.0174497478, 0.49969542, 0.0399999991    
                    847, 0.0184967332, 0.529677153, 0.159999996     
                    848, -0.0184967332, 0.529677153, 0.159999996    
     LINE   855     849, 0.0184967332, 0.529677153, 0.119999997     
                    850, -0.0184967332, 0.529677153, 0.119999997    
                    851, 0.0184967332, 0.529677153, 0.0799999982    
                    852, -0.0184967332, 0.529677153, 0.0799999982   
                    853, 0.0184967332, 0.529677153, 0.0399999991    
     LINE   860     854, -0.0184967332, 0.529677153, 0.0399999991   
                    855, 0.0530481935, 0.504719853, 0.159999996     
                    856, 0.0530481935, 0.504719853, 0.119999997     
                    857, 0.0530481935, 0.504719853, 0.0799999982    
                    858, 0.0530481935, 0.504719853, 0.0399999991    
     LINE   865     859, 0.0538321584, 0.512178779, 0.159999996     
                    860, 0.0538321584, 0.512178779, 0.119999997     
                    861, 0.0538321584, 0.512178779, 0.0799999982    
                    862, 0.0538321584, 0.512178779, 0.0399999991    
                    863, 0.0546161234, 0.519637704, 0.159999996     
     LINE   870     864, 0.0546161234, 0.519637704, 0.119999997     
                    865, 0.0546161234, 0.519637704, 0.0799999982    
                    866, 0.0546161234, 0.519637704, 0.0399999991    
                    867, 0.0177114941, 0.507190824, 0       
                    868, -0.0177114941, 0.507190824, 0      
     LINE   875     869, 0.0179732405, 0.514686286, 0       
                    870, -0.0179732405, 0.514686286, 0      
                    871, 0.0182349868, 0.52218169, 0
                    872, -0.0182349868, 0.52218169, 0       
                    873, 0.0920335352, 0.521948099, 0.159999996     
     LINE   880     874, 0.128218606, 0.514256716, 0.159999996      
                    875, 0.0920335352, 0.521948099, 0.119999997     
                    876, 0.128218606, 0.514256716, 0.119999997      
                    877, 0.0920335352, 0.521948099, 0.0799999982    
                    878, 0.128218606, 0.514256716, 0.0799999982     
     LINE   885     879, 0.0920335352, 0.521948099, 0.0399999991    
                    880, 0.128218606, 0.514256716, 0.0399999991     
                    881, 0.0868240893, 0.492403865, 0.159999996     
                    882, 0.120960951, 0.485147864, 0.159999996      
                    883, 0.0868240893, 0.492403865, 0.119999997     
     LINE   890     884, 0.120960951, 0.485147864, 0.119999997      
                    885, 0.0868240893, 0.492403865, 0.0799999982    
                    886, 0.120960951, 0.485147864, 0.0799999982     
                    887, 0.0868240893, 0.492403865, 0.0399999991    
                    888, 0.120960951, 0.485147864, 0.0399999991     
     LINE   895     889, 0.161461383, 0.496927023, 0.159999996      
                    890, 0.161461383, 0.496927023, 0.119999997      
                    891, 0.161461383, 0.496927023, 0.0799999982     
                    892, 0.161461383, 0.496927023, 0.0399999991     
                    893, 0.159143746, 0.489794105, 0.159999996      
     LINE   900     894, 0.159143746, 0.489794105, 0.119999997      
                    895, 0.159143746, 0.489794105, 0.0799999982     
                    896, 0.159143746, 0.489794105, 0.0399999991     
                    897, 0.156826124, 0.482661188, 0.159999996      
                    898, 0.156826124, 0.482661188, 0.119999997      
     LINE   905     899, 0.156826124, 0.482661188, 0.0799999982     
                    900, 0.156826124, 0.482661188, 0.0399999991     
                    901, 0.0907311738, 0.51456207, 0.200000003      
                    902, 0.126404196, 0.506979525, 0.200000003      
                    903, 0.0894288123, 0.507175982, 0.200000003     
     LINE   910     904, 0.124589778, 0.499702305, 0.200000003      
                    905, 0.0881264508, 0.499789923, 0.200000003     
                    906, 0.122775361, 0.492425084, 0.200000003      
                    907, 0.0907311738, 0.51456207, 0
                    908, 0.126404196, 0.506979525, 0
     LINE   915     909, 0.0894288123, 0.507175982, 0       
                    910, 0.124589778, 0.499702305, 0
                    911, 0.0881264508, 0.499789923, 0       
                    912, 0.122775361, 0.492425084, 0
                    913, 0.0868240893, 0.492403865, 0.239999995     
     LINE   920     914, 0.120960951, 0.485147864, 0.239999995      
                    915, 0.0868240893, 0.492403865, 0.280000001     
                    916, 0.120960951, 0.485147864, 0.280000001      
                    917, 0.0868240893, 0.492403865, 0.319999993     
                    918, 0.120960951, 0.485147864, 0.319999993      
     LINE   925     919, 0.0868240893, 0.492403865, 0.360000014     
                    920, 0.120960951, 0.485147864, 0.360000014      
                    921, 0.0920335352, 0.521948099, 0.239999995     
                    922, 0.128218606, 0.514256716, 0.239999995      
                    923, 0.0920335352, 0.521948099, 0.280000001     
     LINE   930     924, 0.128218606, 0.514256716, 0.280000001      
                    925, 0.0920335352, 0.521948099, 0.319999993     
                    926, 0.128218606, 0.514256716, 0.319999993      
                    927, 0.0920335352, 0.521948099, 0.360000014     
                    928, 0.128218606, 0.514256716, 0.360000014      
     LINE   935     929, 0.156826124, 0.482661188, 0.239999995      
                    930, 0.156826124, 0.482661188, 0.280000001      
                    931, 0.156826124, 0.482661188, 0.319999993      
                    932, 0.156826124, 0.482661188, 0.360000014      
                    933, 0.159143746, 0.489794105, 0.239999995      
     LINE   940     934, 0.159143746, 0.489794105, 0.280000001      
                    935, 0.159143746, 0.489794105, 0.319999993      
                    936, 0.159143746, 0.489794105, 0.360000014      
                    937, 0.161461383, 0.496927023, 0.239999995      
                    938, 0.161461383, 0.496927023, 0.280000001      
     LINE   945     939, 0.161461383, 0.496927023, 0.319999993      
                    940, 0.161461383, 0.496927023, 0.360000014      
                    941, 0.0881264508, 0.499789923, 0.400000006     
                    942, 0.122775361, 0.492425084, 0.400000006      
                    943, 0.0894288123, 0.507175982, 0.400000006     
     LINE   950     944, 0.124589778, 0.499702305, 0.400000006      
                    945, 0.0907311738, 0.51456207, 0.400000006      
                    946, 0.126404196, 0.506979525, 0.400000006      
                    947, 0.128218606, 0.514256716, 0.439999998      
                    948, 0.0920335352, 0.521948099, 0.439999998     
     LINE   955     949, 0.128218606, 0.514256716, 0.479999989      
                    950, 0.0920335352, 0.521948099, 0.479999989     
                    951, 0.128218606, 0.514256716, 0.519999981      
                    952, 0.0920335352, 0.521948099, 0.519999981     
                    953, 0.128218606, 0.514256716, 0.560000002      
     LINE   960     954, 0.0920335352, 0.521948099, 0.560000002     
                    955, 0.120960951, 0.485147864, 0.439999998      
                    956, 0.0868240893, 0.492403865, 0.439999998     
                    957, 0.120960951, 0.485147864, 0.479999989      
                    958, 0.0868240893, 0.492403865, 0.479999989     
     LINE   965     959, 0.120960951, 0.485147864, 0.519999981      
                    960, 0.0868240893, 0.492403865, 0.519999981     
                    961, 0.120960951, 0.485147864, 0.560000002      
                    962, 0.0868240893, 0.492403865, 0.560000002     
                    963, 0.161461383, 0.496927023, 0.439999998      
     LINE   970     964, 0.161461383, 0.496927023, 0.479999989      
                    965, 0.161461383, 0.496927023, 0.519999981      
                    966, 0.161461383, 0.496927023, 0.560000002      
                    967, 0.159143746, 0.489794105, 0.439999998      
                    968, 0.159143746, 0.489794105, 0.479999989      
     LINE   975     969, 0.159143746, 0.489794105, 0.519999981      
                    970, 0.159143746, 0.489794105, 0.560000002      
                    971, 0.156826124, 0.482661188, 0.439999998      
                    972, 0.156826124, 0.482661188, 0.479999989      
                    973, 0.156826124, 0.482661188, 0.519999981      
     LINE   980     974, 0.156826124, 0.482661188, 0.560000002      
                    975, 0.126404196, 0.506979525, 0.600000024      
                    976, 0.0907311738, 0.51456207, 0.600000024      
                    977, 0.124589778, 0.499702305, 0.600000024      
                    978, 0.0894288123, 0.507175982, 0.600000024     
     LINE   985     979, 0.122775361, 0.492425084, 0.600000024      
                    980, 0.0881264508, 0.499789923, 0.600000024     
                    981, 0.0868240893, 0.492403865, 0.839999974     
                    982, 0.120960951, 0.485147864, 0.839999974      
                    983, 0.0868240893, 0.492403865, 0.879999995     
     LINE   990     984, 0.120960951, 0.485147864, 0.879999995      
                    985, 0.0868240893, 0.492403865, 0.920000017     
                    986, 0.120960951, 0.485147864, 0.920000017      
                    987, 0.0868240893, 0.492403865, 0.959999979     
                    988, 0.120960951, 0.485147864, 0.959999979      
     LINE   995     989, 0.0920335352, 0.521948099, 0.839999974     
                    990, 0.128218606, 0.514256716, 0.839999974      
                    991, 0.0920335352, 0.521948099, 0.879999995     
                    992, 0.128218606, 0.514256716, 0.879999995      
                    993, 0.0920335352, 0.521948099, 0.920000017     
     LINE  1000     994, 0.128218606, 0.514256716, 0.920000017      
                    995, 0.0920335352, 0.521948099, 0.959999979     
                    996, 0.128218606, 0.514256716, 0.959999979      
                    997, 0.0530481935, 0.504719853, 0.839999974     
                    998, 0.0530481935, 0.504719853, 0.879999995     
     LINE  1005     999, 0.0530481935, 0.504719853, 0.920000017     
                    1000, 0.0530481935, 0.504719853, 0.959999979    
                    1001, 0.0538321584, 0.512178779, 0.839999974    
                    1002, 0.0538321584, 0.512178779, 0.879999995    
                    1003, 0.0538321584, 0.512178779, 0.920000017    
     LINE  1010     1004, 0.0538321584, 0.512178779, 0.959999979    
                    1005, 0.0546161234, 0.519637704, 0.839999974    
                    1006, 0.0546161234, 0.519637704, 0.879999995    
                    1007, 0.0546161234, 0.519637704, 0.920000017    
                    1008, 0.0546161234, 0.519637704, 0.959999979    
     LINE  1015     1009, 0.156826124, 0.482661188, 0.839999974     
                    1010, 0.156826124, 0.482661188, 0.879999995     
                    1011, 0.156826124, 0.482661188, 0.920000017     
                    1012, 0.156826124, 0.482661188, 0.959999979     
                    1013, 0.159143746, 0.489794105, 0.839999974     
     LINE  1020     1014, 0.159143746, 0.489794105, 0.879999995     
                    1015, 0.159143746, 0.489794105, 0.920000017     
                    1016, 0.159143746, 0.489794105, 0.959999979     
                    1017, 0.161461383, 0.496927023, 0.839999974     
                    1018, 0.161461383, 0.496927023, 0.879999995     
     LINE  1025     1019, 0.161461383, 0.496927023, 0.920000017     
                    1020, 0.161461383, 0.496927023, 0.959999979     
                    1021, 0.0881264508, 0.499789923, 0.800000012    
                    1022, 0.122775361, 0.492425084, 0.800000012     
                    1023, 0.0894288123, 0.507175982, 0.800000012    
     LINE  1030     1024, 0.124589778, 0.499702305, 0.800000012     
                    1025, 0.0907311738, 0.51456207, 0.800000012     
                    1026, 0.126404196, 0.506979525, 0.800000012     
                    1027, 0.0881264508, 0.499789923, 1      
                    1028, 0.122775361, 0.492425084, 1       
     LINE  1035     1029, 0.0894288123, 0.507175982, 1      
                    1030, 0.124589778, 0.499702305, 1       
                    1031, 0.0907311738, 0.51456207, 1       
                    1032, 0.126404196, 0.506979525, 1       
                    1033, -0.18730329, 0.463591933, 0.159999996     
     LINE  1040     1034, -0.219185576, 0.449397027, 0.159999996    
                    1035, -0.18730329, 0.463591933, 0.119999997     
                    1036, -0.219185576, 0.449397027, 0.119999997    
                    1037, -0.18730329, 0.463591933, 0.0799999982    
                    1038, -0.219185576, 0.449397027, 0.0799999982   
     LINE  1045     1039, -0.18730329, 0.463591933, 0.0399999991    
                    1040, -0.219185576, 0.449397027, 0.0399999991   
                    1041, -0.198541492, 0.491407454, 0.159999996    
                    1042, -0.232336715, 0.476360857, 0.159999996    
                    1043, -0.198541492, 0.491407454, 0.119999997    
     LINE  1050     1044, -0.232336715, 0.476360857, 0.119999997    
                    1045, -0.198541492, 0.491407454, 0.0799999982   
                    1046, -0.232336715, 0.476360857, 0.0799999982   
                    1047, -0.198541492, 0.491407454, 0.0399999991   
                    1048, -0.232336715, 0.476360857, 0.0399999991   
     LINE  1055     1049, -0.253749996, 0.439507902, 0.159999996    
                    1050, -0.253749996, 0.439507902, 0.119999997    
                    1051, -0.253749996, 0.439507902, 0.0799999982   
                    1052, -0.253749996, 0.439507902, 0.0399999991   
                    1053, -0.257499993, 0.446003079, 0.159999996    
     LINE  1060     1054, -0.257499993, 0.446003079, 0.119999997    
                    1055, -0.257499993, 0.446003079, 0.0799999982   
                    1056, -0.257499993, 0.446003079, 0.0399999991   
                    1057, -0.261249989, 0.452498287, 0.159999996    
                    1058, -0.261249989, 0.452498287, 0.119999997    
     LINE  1065     1059, -0.261249989, 0.452498287, 0.0799999982   
                    1060, -0.261249989, 0.452498287, 0.0399999991   
                    1061, -0.190112844, 0.470545799, 0.200000003    
                    1062, -0.222473353, 0.456137985, 0.200000003    
                    1063, -0.192922398, 0.477499694, 0.200000003    
     LINE  1070     1064, -0.225761145, 0.462878942, 0.200000003    
                    1065, -0.195731938, 0.484453559, 0.200000003    
                    1066, -0.229048923, 0.4696199, 0.200000003      
                    1067, -0.190112844, 0.470545799, 0      
                    1068, -0.222473353, 0.456137985, 0      
     LINE  1075     1069, -0.192922398, 0.477499694, 0      
                    1070, -0.225761145, 0.462878942, 0      
                    1071, -0.195731938, 0.484453559, 0      
                    1072, -0.229048923, 0.4696199, 0
                    1073, -0.219185576, 0.449397027, 0.439999998    
     LINE  1080     1074, -0.18730329, 0.463591933, 0.439999998     
                    1075, -0.219185576, 0.449397027, 0.479999989    
                    1076, -0.18730329, 0.463591933, 0.479999989     
                    1077, -0.219185576, 0.449397027, 0.519999981    
                    1078, -0.18730329, 0.463591933, 0.519999981     
     LINE  1085     1079, -0.219185576, 0.449397027, 0.560000002    
                    1080, -0.18730329, 0.463591933, 0.560000002     
                    1081, -0.232336715, 0.476360857, 0.439999998    
                    1082, -0.198541492, 0.491407454, 0.439999998    
                    1083, -0.232336715, 0.476360857, 0.479999989    
     LINE  1090     1084, -0.198541492, 0.491407454, 0.479999989    
                    1085, -0.232336715, 0.476360857, 0.519999981    
                    1086, -0.198541492, 0.491407454, 0.519999981    
                    1087, -0.232336715, 0.476360857, 0.560000002    
                    1088, -0.198541492, 0.491407454, 0.560000002    
     LINE  1095     1089, -0.253749996, 0.439507902, 0.439999998    
                    1090, -0.253749996, 0.439507902, 0.479999989    
                    1091, -0.253749996, 0.439507902, 0.519999981    
                    1092, -0.253749996, 0.439507902, 0.560000002    
                    1093, -0.257499993, 0.446003079, 0.439999998    
     LINE  1100     1094, -0.257499993, 0.446003079, 0.479999989    
                    1095, -0.257499993, 0.446003079, 0.519999981    
                    1096, -0.257499993, 0.446003079, 0.560000002    
                    1097, -0.261249989, 0.452498287, 0.439999998    
                    1098, -0.261249989, 0.452498287, 0.479999989    
     LINE  1105     1099, -0.261249989, 0.452498287, 0.519999981    
                    1100, -0.261249989, 0.452498287, 0.560000002    
                    1101, -0.222473353, 0.456137985, 0.400000006    
                    1102, -0.190112844, 0.470545799, 0.400000006    
                    1103, -0.225761145, 0.462878942, 0.400000006    
     LINE  1110     1104, -0.192922398, 0.477499694, 0.400000006    
                    1105, -0.229048923, 0.4696199, 0.400000006      
                    1106, -0.195731938, 0.484453559, 0.400000006    
                    1107, -0.222473353, 0.456137985, 0.600000024    
                    1108, -0.190112844, 0.470545799, 0.600000024    
     LINE  1115     1109, -0.225761145, 0.462878942, 0.600000024    
                    1110, -0.192922398, 0.477499694, 0.600000024    
                    1111, -0.229048923, 0.4696199, 0.600000024      
                    1112, -0.195731938, 0.484453559, 0.600000024    
                    1113, -0.198541492, 0.491407454, 0.239999995    
     LINE  1120     1114, -0.232336715, 0.476360857, 0.239999995    
                    1115, -0.198541492, 0.491407454, 0.280000001    
                    1116, -0.232336715, 0.476360857, 0.280000001    
                    1117, -0.198541492, 0.491407454, 0.319999993    
                    1118, -0.232336715, 0.476360857, 0.319999993    
     LINE  1125     1119, -0.198541492, 0.491407454, 0.360000014    
                    1120, -0.232336715, 0.476360857, 0.360000014    
[...]
  SENSOR-1                                         19         1699      
  SENSOR-1                                         20         1700      
  SENSOR-1                                         21         1701      
  SENSOR-1                                         22         1702      
  SENSOR-1                                         23         1703      
  SENSOR-1                                         24         1704      
  SENSOR-1                                         25         1705      
  SENSOR-1                                         26         1706      
  SENSOR-1                                         27         1707      
  SENSOR-1                                         28         1708      
  SENSOR-1                                         29         1709      
  SENSOR-1                                         30         1710      
  SENSOR-1                                         31         1711      
  SENSOR-1                                         32         1712      
  SENSOR-1                                         33         1713      
  SENSOR-1                                         34         1714      
  SENSOR-1                                         35         1715      
  SENSOR-1                                         36         1716      
  SENSOR-1                                         37         1717      
  SENSOR-1                                         38         1718      
  SENSOR-1                                         39         1719      
  SENSOR-1                                         40         1720      
  SENSOR-1                                         41         1721      
  SENSOR-1                                         42         1722      
  SENSOR-1                                         43         1723      
  SENSOR-1                                         44         1724      
  SENSOR-1                                         45         1725      
  SENSOR-1                                         46         1726      
  SENSOR-1                                         47         1727      
  SENSOR-1                                         48         1728      
  SENSOR-1                                         49         1729      
  SENSOR-1                                         50         1730      
  SENSOR-1                                         51         1731      
  SENSOR-1                                         52         1732      
  SENSOR-1                                         53         1733      
  SENSOR-1                                         54         1734      
  SENSOR-1                                         55         1735      
  SENSOR-1                                         56         1736      
  SENSOR-1                                         57         1737      
  SENSOR-1                                         58         1738      
  SENSOR-1                                         59         1739      
  SENSOR-1                                         60         1740      
  SENSOR-1                                         61         1741      
  SENSOR-1                                         62         1742      
  SENSOR-1                                         63         1743      
  SENSOR-1                                         64         1744      
  SENSOR-1                                         65         1745      
  SENSOR-1                                         66         1746      
  SENSOR-1                                         67         1747      
  SENSOR-1                                         68         1748      
  SENSOR-1                                         69         1749      
  SENSOR-1                                         70         1750      
  SENSOR-1                                         71         1751      
  SENSOR-1                                         72         1752      
  SENSOR-1                                         73         1753      
  SENSOR-1                                         74         1754      
  SENSOR-1                                         75         1755      
  SENSOR-1                                         76         1756      
  SENSOR-1                                         77         1757      
  SENSOR-1                                         78         1758      
  SENSOR-1                                         79         1759      
  SENSOR-1                                         80         1760      
  SENSOR-1                                         81         1761      
  SENSOR-1                                         82         1762      
  SENSOR-1                                         83         1763      
  SENSOR-1                                         84         1764      
  SENSOR-1                                         85         1765      
  SENSOR-1                                         86         1766      
  SENSOR-1                                         87         1767      
  SENSOR-1                                         88         1768      
  SENSOR-1                                         89         1769      
  SENSOR-1                                         90         1770      
  SENSOR-1                                         91         1771      
  SENSOR-1                                         92         1772      
  SENSOR-1                                         93         1773      
  SENSOR-1                                         94         1774      
  SENSOR-1                                         95         1775      
  SENSOR-1                                         96         1776      
  SENSOR-1                                         97         1777      
  SENSOR-1                                         98         1778      
  SENSOR-1                                         99         1779      
  SENSOR-1                                         100        1780      
  SENSOR-1                                         101        1781      
  SENSOR-1                                         102        1782      
  SENSOR-1                                         103        1783      
  SENSOR-1                                         104        1784      
  SENSOR-1                                         105        1785      
  SENSOR-1                                         106        1786      
  SENSOR-1                                         107        1787      
  SENSOR-1                                         108        1788      
  SENSOR-1                                         109        1789      
  SENSOR-1                                         110        1790      
  SENSOR-1                                         111        1791      
  SENSOR-1                                         112        1792      
  SENSOR-1                                         113        1793      
  SENSOR-1                                         114        1794      
  SENSOR-1                                         115        1795      
  SENSOR-1                                         116        1796      
  SENSOR-1                                         117        1797      
  SENSOR-1                                         118        1798      
  SENSOR-1                                         119        1799      
  SENSOR-1                                         120        1800      
  SENSOR-1                                         121        1801      
  SENSOR-1                                         122        1802      
  SENSOR-1                                         123        1803      
  SENSOR-1                                         124        1804      
  SENSOR-1                                         125        1805      
  SENSOR-1                                         126        1806      
  SENSOR-1                                         127        1807      
  SENSOR-1                                         128        1808      
  SENSOR-1                                         129        1809      
  SENSOR-1                                         130        1810      
  SENSOR-1                                         131        1811      
  SENSOR-1                                         132        1812      
  SENSOR-1                                         133        1813      
  SENSOR-1                                         134        1814      
  SENSOR-1                                         135        1815      
  SENSOR-1                                         136        1816      
  SENSOR-1                                         137        1817      
  SENSOR-1                                         138        1818      
  SENSOR-1                                         139        1819      
  SENSOR-1                                         140        1820      
  SENSOR-1                                         141        1821      
  SENSOR-1                                         142        1822      
  SENSOR-1                                         143        1823      
  SENSOR-1                                         144        1824      
  SENSOR-1                                         145        1825      
  SENSOR-1                                         146        1826      
  SENSOR-1                                         147        1827      
  SENSOR-1                                         148        1828      
  SENSOR-1                                         149        1829      
  SENSOR-1                                         150        1830      




                            P R O B L E M   S I Z E


          NUMBER OF ELEMENTS IS                                  1830
          NUMBER OF NODES IS                                     4085
          NUMBER OF NODES DEFINED BY THE USER                    4085
          TOTAL NUMBER OF VARIABLES IN THE MODEL                14260
          (DEGREES OF FREEDOM PLUS MAX NO. OF ANY LAGRANGE MULTIPLIER
           VARIABLES. INCLUDE *PRINT,SOLVE=YES TO GET THE ACTUAL NUMBER.)



                              END OF USER INPUT PROCESSING



     JOB TIME SUMMARY
       USER TIME (SEC)      =  0.30000    
       SYSTEM TIME (SEC)    =   0.0000    
       TOTAL CPU TIME (SEC) =  0.30000    
       WALLCLOCK TIME (SEC) =          1
1

   Abaqus 6.13-1                                  Date 20-Feb-2016   Time 12:03:43
   For use by  under license from Dassault Systemes or its subsidiary.

                                                                                               STEP    1  INCREMENT    1
                                                                                          TIME COMPLETED IN THIS STEP   0.00    


                        S T E P       1     D Y N A M I C   A N A L Y S I S - I M P L I C I T  I N T E G R A T I O N


                                                                                          

          DYNAMIC APPLICATION PACKED SCHEME IS                 TRANSIENT FIDELITY  
          HILBER-HUGHES-TAYLOR (HHT) TIME INTEGRATOR IS USED

     AUTOMATIC TIME CONTROL WITH -
          A SUGGESTED INITIAL TIME INCREMENT OF                1.000E-13
          AND A TOTAL TIME PERIOD OF                            1.00    
          THE MINIMUM TIME INCREMENT ALLOWED IS                1.000E-13
          THE MAXIMUM TIME INCREMENT ALLOWED IS                1.000E-05
          SCALE FACTOR ON TIME AVERAGE FORCE FOR HALF-
           -INCREMENT RESIDUAL COMPUTATIONS IS                 1.000E+03

          HILBER-HUGHES-TAYLOR METHOD PARAMETERS:  ALPHA   IS  -5.000000E-02
                                                   BETA    IS   0.275625    
                                                   GAMMA   IS   0.550000    
          SINGULAR MASS TREATMENT TYPE IS                     ERROR
          CONSERVATIVE TIME INCREMENTATION IS USED
          STEP AMPLITUDE IS                                    STEP



                    TOTAL MASS OF MODEL

                       127.4955    


                    LOCATION OF THE CENTER OF MASS OF THE MODEL

                     -6.0279665E-14      0.4919576          0.5000000    


                    MOMENTS OF INERTIA ABOUT THE ORIGIN
                           I(XX)               I(YY)               I(ZZ)

                       73.34375           45.33968           33.84298    


                    PRODUCTS OF INERTIA ABOUT THE ORIGIN
                           I(XY)               I(XZ)               I(YZ)

                      4.0000170E-12      3.8402061E-12      -31.36119    


                    MOMENTS OF INERTIA ABOUT THE CENTER OF MASS
                           I(XX)               I(YY)               I(ZZ)

                       10.61313           13.46580           2.986232    


                    PRODUCTS OF INERTIA ABOUT THE CENTER OF MASS
                           I(XY)               I(XZ)               I(YZ)

                      2.1913306E-13     -2.4872446E-15     -5.5635496E-11
  
                   M E M O R Y   E S T I M A T E
  
 PROCESS      FLOATING PT       MINIMUM MEMORY        MEMORY TO
              OPERATIONS           REQUIRED          MINIMIZE I/O
             PER ITERATION         (MBYTES)           (MBYTES)
  
     1         1.92E+009               36                 91
  
 NOTE:
      (1) SINCE ABAQUS DOES NOT PRE-ALLOCATE MEMORY AND ONLY ALLOCATES MEMORY AS NEEDED DURING THE ANALYSIS,
          THE MEMORY REQUIREMENT PRINTED HERE CAN ONLY BE VIEWED AS A GENERAL GUIDELINE BASED ON THE BEST
          KNOWLEDGE AVAILABLE AT THE BEGINNING OF A STEP BEFORE THE SOLUTION PROCESS HAS BEGUN.
      (2) THE ESTIMATE IS NORMALLY UPDATED AT THE BEGINNING OF EVERY STEP. IT IS THE MAXIMUM VALUE OF THE
          ESTIMATE FROM THE CURRENT STEP TO THE LAST STEP OF THE ANALYSIS, WITH UNSYMMETRIC SOLUTION TAKEN
          INTO ACCOUNT IF APPLICABLE. 
      (3) SINCE THE ESTIMATE IS BASED ON THE ACTIVE DEGREES OF FREEDOM IN THE FIRST ITERATION OF THE 
          CURRENT STEP, THE MEMORY ESTIMATE MIGHT BE SIGNIFICANTLY DIFFERENT THAN ACTUAL USAGE FOR 
          PROBLEMS WITH SUBSTANTIAL CHANGES IN ACTIVE DEGREES OF FREEDOM BETWEEN STEPS (OR EVEN WITHIN
          THE SAME STEP). EXAMPLES ARE: PROBLEMS WITH SIGNIFICANT CONTACT CHANGES, PROBLEMS WITH MODEL
          CHANGE, PROBLEMS WITH BOTH STATIC STEP AND STEADY STATE DYNAMIC PROCEDURES WHERE ACOUSTIC 
          ELEMENTS WILL ONLY BE ACTIVATED IN THE STEADY STATE DYNAMIC STEPS.
      (4) FOR MULTI-PROCESS EXECUTION, THE ESTIMATED VALUE OF FLOATING POINT OPERATIONS FOR EACH PROCESS
          IS BASED ON AN INITIAL SCHEDULING OF OPERATIONS AND MIGHT NOT REFLECT THE ACTUAL FLOATING 
          POINT OPERATIONS COMPLETED ON EACH PROCESS. OPERATIONS ARE DYNAMICALLY BALANCED DURING EXECUTION, 
          SO THE ACTUAL BALANCE OF OPERATIONS BETWEEN PROCESSES IS EXPECTED TO BE BETTER THAN THE ESTIMATE
          PRINTED HERE.
      (5) THE UPPER LIMIT OF MEMORY THAT CAN BE ALLOCATED BY ABAQUS WILL IN GENERAL DEPEND ON THE VALUE OF
          THE "MEMORY" PARAMETER AND THE AMOUNT OF PHYSICAL MEMORY AVAILABLE ON THE MACHINE. PLEASE SEE
          THE "ABAQUS ANALYSIS USER'S MANUAL" FOR MORE DETAILS. THE ACTUAL USAGE OF MEMORY AND OF DISK
          SPACE FOR SCRATCH DATA WILL DEPEND ON THIS UPPER LIMIT AS WELL AS THE MEMORY REQUIRED TO MINIMIZE
          I/O. IF THE MEMORY UPPER LIMIT IS GREATER THAN THE MEMORY REQUIRED TO MINIMIZE I/O, THEN THE ACTUAL
          MEMORY USAGE WILL BE CLOSE TO THE ESTIMATED "MEMORY TO MINIMIZE I/O" VALUE, AND THE SCRATCH DISK
          USAGE WILL BE CLOSE-TO-ZERO; OTHERWISE, THE ACTUAL MEMORY USED WILL BE CLOSE TO THE PREVIOUSLY
          MENTIONED MEMORY LIMIT, AND THE SCRATCH DISK USAGE WILL BE ROUGHLY PROPORTIONAL TO THE DIFFERENCE
          BETWEEN THE ESTIMATED "MEMORY TO MINIMIZE I/O" AND THE MEMORY UPPER LIMIT. HOWEVER ACCURATE
          ESTIMATE OF THE SCRATCH DISK SPACE IS NOT POSSIBLE.
      (6) USING "*RESTART, WRITE" CAN GENERATE A LARGE AMOUNT OF DATA WRITTEN IN THE WORK DIRECTORY.
  
                   M E M O R Y   E S T I M A T E
  
 PROCESS      FLOATING PT       MINIMUM MEMORY        MEMORY TO
              OPERATIONS           REQUIRED          MINIMIZE I/O
             PER ITERATION         (MBYTES)           (MBYTES)
  
     1         2.85E+009               37                110
  
 NOTE:
      (1) SINCE ABAQUS DOES NOT PRE-ALLOCATE MEMORY AND ONLY ALLOCATES MEMORY AS NEEDED DURING THE ANALYSIS,
          THE MEMORY REQUIREMENT PRINTED HERE CAN ONLY BE VIEWED AS A GENERAL GUIDELINE BASED ON THE BEST
          KNOWLEDGE AVAILABLE AT THE BEGINNING OF A STEP BEFORE THE SOLUTION PROCESS HAS BEGUN.
      (2) THE ESTIMATE IS NORMALLY UPDATED AT THE BEGINNING OF EVERY STEP. IT IS THE MAXIMUM VALUE OF THE
          ESTIMATE FROM THE CURRENT STEP TO THE LAST STEP OF THE ANALYSIS, WITH UNSYMMETRIC SOLUTION TAKEN
          INTO ACCOUNT IF APPLICABLE. 
      (3) SINCE THE ESTIMATE IS BASED ON THE ACTIVE DEGREES OF FREEDOM IN THE FIRST ITERATION OF THE 
          CURRENT STEP, THE MEMORY ESTIMATE MIGHT BE SIGNIFICANTLY DIFFERENT THAN ACTUAL USAGE FOR 
          PROBLEMS WITH SUBSTANTIAL CHANGES IN ACTIVE DEGREES OF FREEDOM BETWEEN STEPS (OR EVEN WITHIN
          THE SAME STEP). EXAMPLES ARE: PROBLEMS WITH SIGNIFICANT CONTACT CHANGES, PROBLEMS WITH MODEL
          CHANGE, PROBLEMS WITH BOTH STATIC STEP AND STEADY STATE DYNAMIC PROCEDURES WHERE ACOUSTIC 
          ELEMENTS WILL ONLY BE ACTIVATED IN THE STEADY STATE DYNAMIC STEPS.
      (4) FOR MULTI-PROCESS EXECUTION, THE ESTIMATED VALUE OF FLOATING POINT OPERATIONS FOR EACH PROCESS
          IS BASED ON AN INITIAL SCHEDULING OF OPERATIONS AND MIGHT NOT REFLECT THE ACTUAL FLOATING 
          POINT OPERATIONS COMPLETED ON EACH PROCESS. OPERATIONS ARE DYNAMICALLY BALANCED DURING EXECUTION, 
          SO THE ACTUAL BALANCE OF OPERATIONS BETWEEN PROCESSES IS EXPECTED TO BE BETTER THAN THE ESTIMATE
          PRINTED HERE.
      (5) THE UPPER LIMIT OF MEMORY THAT CAN BE ALLOCATED BY ABAQUS WILL IN GENERAL DEPEND ON THE VALUE OF
          THE "MEMORY" PARAMETER AND THE AMOUNT OF PHYSICAL MEMORY AVAILABLE ON THE MACHINE. PLEASE SEE
          THE "ABAQUS ANALYSIS USER'S MANUAL" FOR MORE DETAILS. THE ACTUAL USAGE OF MEMORY AND OF DISK
          SPACE FOR SCRATCH DATA WILL DEPEND ON THIS UPPER LIMIT AS WELL AS THE MEMORY REQUIRED TO MINIMIZE
          I/O. IF THE MEMORY UPPER LIMIT IS GREATER THAN THE MEMORY REQUIRED TO MINIMIZE I/O, THEN THE ACTUAL
          MEMORY USAGE WILL BE CLOSE TO THE ESTIMATED "MEMORY TO MINIMIZE I/O" VALUE, AND THE SCRATCH DISK
          USAGE WILL BE CLOSE-TO-ZERO; OTHERWISE, THE ACTUAL MEMORY USED WILL BE CLOSE TO THE PREVIOUSLY
          MENTIONED MEMORY LIMIT, AND THE SCRATCH DISK USAGE WILL BE ROUGHLY PROPORTIONAL TO THE DIFFERENCE
          BETWEEN THE ESTIMATED "MEMORY TO MINIMIZE I/O" AND THE MEMORY UPPER LIMIT. HOWEVER ACCURATE
          ESTIMATE OF THE SCRATCH DISK SPACE IS NOT POSSIBLE.
      (6) USING "*RESTART, WRITE" CAN GENERATE A LARGE AMOUNT OF DATA WRITTEN IN THE WORK DIRECTORY.


          THE ANALYSIS IS ENDED BECAUSE OF THE PROBLEMS ENCOUNTERED
          LOOK AT THE MSG FILE FOR THE CAUSE OF THE TERMINATION



                              ANALYSIS IS ENDED
                              WITH      1 ERROR MESSAGES ON THE MSG FILE
                              AND      13 WARNING MESSAGES ON THE DAT FILE
                              AND      74 WARNING MESSAGES ON THE MSG FILE



     JOB TIME SUMMARY
       USER TIME (SEC)      =   8240.9    
       SYSTEM TIME (SEC)    =   5394.2    
       TOTAL CPU TIME (SEC) =   13635.    
       WALLCLOCK TIME (SEC) =       2314
