 Abaqus/Standard 6.13-1                  DATE 09-Feb-2016 TIME 18:47:28
 SUMMARY OF JOB INFORMATION:
 STEP  INC ATT SEVERE EQUIL TOTAL  TOTAL      STEP       INC OF       DOF    IF
               DISCON ITERS ITERS  TIME/    TIME/LPF    TIME/LPF    MONITOR RIKS
               ITERS               FREQ
   1     1                        1.30e+003
   1     2                        1.30e+003
   1     3                        1.30e+003
   1     4                        1.31e+003
   1     5                        1.31e+003
   1     6                        1.31e+003
   1     7                        1.31e+003
   1     8                        1.31e+003
   1     9                        1.32e+003
   1    10                        1.32e+003
   1    11                        1.32e+003
   1    12                        1.32e+003
   1    13                        1.32e+003
   1    14                        1.33e+003
   1    15                        1.33e+003
   1    16                        1.33e+003
   1    17                        1.33e+003
   1    18                        1.33e+003
   1    19                        1.34e+003
   1    20                        1.34e+003
   1    21                        1.34e+003
   1    22                        1.34e+003
   1    23                        1.34e+003
   1    24                        1.35e+003
   1    25                        1.35e+003
   1    26                        1.35e+003
   1    27                        1.35e+003
   1    28                        1.35e+003
   1    29                        1.36e+003
   1    30                        1.36e+003
   1    31                        1.36e+003
   1    32                        1.36e+003
   1    33                        1.36e+003
   1    34                        1.37e+003
   1    35                        1.37e+003
   1    36                        1.37e+003
   1    37                        1.37e+003
   1    38                        1.37e+003
   1    39                        1.38e+003
   1    40                        1.38e+003
   1    41                        1.38e+003
   1    42                        1.38e+003
   1    43                        1.38e+003
   1    44                        1.39e+003
   1    45                        1.39e+003
   1    46                        1.39e+003
   1    47                        1.39e+003
   1    48                        1.39e+003
   1    49                        1.40e+003
   1    50                        1.40e+003
   1    51                        1.40e+003
   1    52                        1.40e+003
   1    53                        1.40e+003
   1    54                        1.41e+003
   1    55                        1.41e+003
   1    56                        1.41e+003
   1    57                        1.41e+003
   1    58                        1.41e+003
   1    59                        1.42e+003
   1    60                        1.42e+003
   1    61                        1.42e+003
   1    62                        1.42e+003
   1    63                        1.42e+003
   1    64                        1.43e+003
   1    65                        1.43e+003
   1    66                        1.43e+003
   1    67                        1.43e+003
   1    68                        1.43e+003
   1    69                        1.44e+003
   1    70                        1.44e+003
   1    71                        1.44e+003
   1    72                        1.44e+003
   1    73                        1.44e+003
   1    74                        1.45e+003
   1    75                        1.45e+003
   1    76                        1.45e+003
   1    77                        1.45e+003
   1    78                        1.45e+003
   1    79                        1.46e+003
   1    80                        1.46e+003
   1    81                        1.46e+003
   1    82                        1.46e+003
   1    83                        1.46e+003
   1    84                        1.47e+003
   1    85                        1.47e+003
   1    86                        1.47e+003
   1    87                        1.47e+003
   1    88                        1.47e+003
   1    89                        1.48e+003
   1    90                        1.48e+003
   1    91                        1.48e+003
   1    92                        1.48e+003
   1    93                        1.48e+003
   1    94                        1.49e+003
   1    95                        1.49e+003
   1    96                        1.49e+003
   1    97                        1.49e+003
   1    98                        1.49e+003
   1    99                        1.50e+003
   1   100                        1.50e+003
   1   101                        1.50e+003
   1   102                        1.50e+003
   1   103                        1.50e+003
   1   104                        1.51e+003
   1   105                        1.51e+003
   1   106                        1.51e+003
   1   107                        1.51e+003
   1   108                        1.51e+003
   1   109                        1.52e+003
   1   110                        1.52e+003
   1   111                        1.52e+003
   1   112                        1.52e+003
   1   113                        1.52e+003
   1   114                        1.53e+003
   1   115                        1.53e+003
   1   116                        1.53e+003
   1   117                        1.53e+003
   1   118                        1.53e+003
   1   119                        1.54e+003
   1   120                        1.54e+003
   1   121                        1.54e+003
   1   122                        1.54e+003
   1   123                        1.54e+003
   1   124                        1.55e+003
   1   125                        1.55e+003
   1   126                        1.55e+003
   1   127                        1.55e+003
   1   128                        1.55e+003
   1   129                        1.56e+003
   1   130                        1.56e+003
   1   131                        1.56e+003
   1   132                        1.56e+003
   1   133                        1.56e+003
   1   134                        1.57e+003
   1   135                        1.57e+003
   1   136                        1.57e+003
   1   137                        1.57e+003
   1   138                        1.57e+003
   1   139                        1.58e+003
   1   140                        1.58e+003
   1   141                        1.58e+003
   1   142                        1.58e+003
   1   143                        1.58e+003
   1   144                        1.59e+003
   1   145                        1.59e+003
   1   146                        1.59e+003
   1   147                        1.59e+003
   1   148                        1.59e+003
   1   149                        1.60e+003
   1   150                        1.60e+003
   1   151                        1.60e+003
   1   152                        1.60e+003
   1   153                        1.60e+003
   1   154                        1.61e+003
   1   155                        1.61e+003
   1   156                        1.61e+003
   1   157                        1.61e+003
   1   158                        1.61e+003
   1   159                        1.62e+003
   1   160                        1.62e+003
   1   161                        1.62e+003
   1   162                        1.62e+003
   1   163                        1.62e+003
   1   164                        1.63e+003
   1   165                        1.63e+003
   1   166                        1.63e+003
   1   167                        1.63e+003
   1   168                        1.63e+003
   1   169                        1.64e+003
   1   170                        1.64e+003
   1   171                        1.64e+003
   1   172                        1.64e+003
   1   173                        1.64e+003
   1   174                        1.65e+003
   1   175                        1.65e+003
   1   176                        1.65e+003
   1   177                        1.65e+003
   1   178                        1.65e+003
   1   179                        1.66e+003
   1   180                        1.66e+003
   1   181                        1.66e+003
   1   182                        1.66e+003
   1   183                        1.66e+003
   1   184                        1.67e+003
   1   185                        1.67e+003
   1   186                        1.67e+003
   1   187                        1.67e+003
   1   188                        1.67e+003
   1   189                        1.68e+003
   1   190                        1.68e+003
   1   191                        1.68e+003
   1   192                        1.68e+003
   1   193                        1.68e+003
   1   194                        1.69e+003
   1   195                        1.69e+003
   1   196                        1.69e+003
   1   197                        1.69e+003
   1   198                        1.69e+003
   1   199                        1.70e+003
   1   200                        1.70e+003
   1   201                        1.70e+003
   1   202                        1.70e+003
   1   203                        1.70e+003
   1   204                        1.71e+003
   1   205                        1.71e+003
   1   206                        1.71e+003
   1   207                        1.71e+003
   1   208                        1.71e+003
   1   209                        1.72e+003
   1   210                        1.72e+003
   1   211                        1.72e+003
   1   212                        1.72e+003
   1   213                        1.72e+003
   1   214                        1.73e+003
   1   215                        1.73e+003
   1   216                        1.73e+003
   1   217                        1.73e+003
   1   218                        1.73e+003
   1   219                        1.74e+003
   1   220                        1.74e+003
   1   221                        1.74e+003
   1   222                        1.74e+003
   1   223                        1.74e+003
   1   224                        1.75e+003
   1   225                        1.75e+003
   1   226                        1.75e+003
   1   227                        1.75e+003
   1   228                        1.75e+003
   1   229                        1.76e+003
   1   230                        1.76e+003
   1   231                        1.76e+003
   1   232                        1.76e+003
   1   233                        1.76e+003
   1   234                        1.77e+003
   1   235                        1.77e+003
   1   236                        1.77e+003
   1   237                        1.77e+003
   1   238                        1.77e+003
   1   239                        1.78e+003
   1   240                        1.78e+003
   1   241                        1.78e+003
   1   242                        1.78e+003
   1   243                        1.78e+003
   1   244                        1.79e+003
   1   245                        1.79e+003
   1   246                        1.79e+003
   1   247                        1.79e+003
   1   248                        1.79e+003
   1   249                        1.80e+003
   1   250                        1.80e+003
   1   251                        1.80e+003
   1   252                        1.80e+003
   1   253                        1.80e+003
   1   254                        1.81e+003
   1   255                        1.81e+003
   1   256                        1.81e+003
   1   257                        1.81e+003
   1   258                        1.81e+003
   1   259                        1.82e+003
   1   260                        1.82e+003
   1   261                        1.82e+003
   1   262                        1.82e+003
   1   263                        1.82e+003
   1   264                        1.83e+003
   1   265                        1.83e+003
   1   266                        1.83e+003
   1   267                        1.83e+003
   1   268                        1.83e+003
   1   269                        1.84e+003
   1   270                        1.84e+003
   1   271                        1.84e+003
   1   272                        1.84e+003
   1   273                        1.84e+003
   1   274                        1.85e+003
   1   275                        1.85e+003
   1   276                        1.85e+003
   1   277                        1.85e+003
   1   278                        1.86e+003
   1   279                        1.86e+003
   1   280                        1.86e+003
   1   281                        1.86e+003
   1   282                        1.86e+003
   1   283                        1.87e+003
   1   284                        1.87e+003
   1   285                        1.87e+003
   1   286                        1.87e+003
   1   287                        1.87e+003
   1   288                        1.88e+003
   1   289                        1.88e+003
   1   290                        1.88e+003
   1   291                        1.88e+003
   1   292                        1.88e+003
   1   293                        1.89e+003
   1   294                        1.89e+003
   1   295                        1.89e+003
   1   296                        1.89e+003
   1   297                        1.89e+003
   1   298                        1.90e+003
   1   299                        1.90e+003
   1   300                        1.90e+003
   1   301                        1.90e+003
   1   302                        1.90e+003
   1   303                        1.91e+003
   1   304                        1.91e+003
   1   305                        1.91e+003
   1   306                        1.91e+003
   1   307                        1.91e+003
   1   308                        1.92e+003
   1   309                        1.92e+003
   1   310                        1.92e+003
   1   311                        1.92e+003
   1   312                        1.92e+003
   1   313                        1.93e+003
   1   314                        1.93e+003
   1   315                        1.93e+003
   1   316                        1.93e+003
   1   317                        1.93e+003
   1   318                        1.94e+003
   1   319                        1.94e+003
   1   320                        1.94e+003
   1   321                        1.94e+003
   1   322                        1.94e+003
   1   323                        1.95e+003
   1   324                        1.95e+003
   1   325                        1.95e+003
   1   326                        1.95e+003
   1   327                        1.95e+003
   1   328                        1.96e+003
   1   329                        1.96e+003
   1   330                        1.96e+003
   1   331                        1.96e+003
   1   332                        1.96e+003
   1   333                        1.97e+003
   1   334                        1.97e+003
   1   335                        1.97e+003
   1   336                        1.97e+003
   1   337                        1.97e+003
   1   338                        1.98e+003
   1   339                        1.98e+003
   1   340                        1.98e+003
   1   341                        1.98e+003
   1   342                        1.98e+003
   1   343                        1.99e+003
   1   344                        1.99e+003
   1   345                        1.99e+003
   1   346                        1.99e+003
   1   347                        1.99e+003
   1   348                        2.00e+003
   1   349                        2.00e+003
   1   350                        2.00e+003
   1   351                        2.00e+003
   1   352                        2.00e+003
   1   353                        2.01e+003
   1   354                        2.01e+003
   1   355                        2.01e+003
   1   356                        2.01e+003
   1   357                        2.01e+003
   1   358                        2.02e+003
   1   359                        2.02e+003
   1   360                        2.02e+003
   1   361                        2.02e+003
   1   362                        2.02e+003
   1   363                        2.03e+003
   1   364                        2.03e+003
   1   365                        2.03e+003
   1   366                        2.03e+003
   1   367                        2.03e+003
   1   368                        2.04e+003
   1   369                        2.04e+003
   1   370                        2.04e+003
   1   371                        2.04e+003
   1   372                        2.04e+003
   1   373                        2.05e+003
   1   374                        2.05e+003
   1   375                        2.05e+003
   1   376                        2.05e+003
   1   377                        2.05e+003
   1   378                        2.06e+003
   1   379                        2.06e+003
   1   380                        2.06e+003
   1   381                        2.06e+003
   1   382                        2.06e+003
   1   383                        2.07e+003
   1   384                        2.07e+003
   1   385                        2.07e+003
   1   386                        2.07e+003
   1   387                        2.07e+003
   1   388                        2.08e+003
   1   389                        2.08e+003
   1   390                        2.08e+003
   1   391                        2.08e+003
   1   392                        2.08e+003
   1   393                        2.09e+003
   1   394                        2.09e+003
   1   395                        2.09e+003
   1   396                        2.09e+003
   1   397                        2.09e+003
   1   398                        2.10e+003
   1   399                        2.10e+003
   1   400                        2.10e+003
   1   401                        2.10e+003
   1   402                        2.10e+003
   1   403                        2.11e+003
   1   404                        2.11e+003
   1   405                        2.11e+003
   1   406                        2.11e+003
   1   407                        2.11e+003
   1   408                        2.12e+003
   1   409                        2.12e+003
   1   410                        2.12e+003
   1   411                        2.12e+003
   1   412                        2.12e+003
   1   413                        2.13e+003
   1   414                        2.13e+003
   1   415                        2.13e+003
   1   416                        2.13e+003
   1   417                        2.13e+003
   1   418                        2.14e+003
   1   419                        2.14e+003
   1   420                        2.14e+003
   1   421                        2.14e+003
   1   422                        2.14e+003
   1   423                        2.15e+003
   1   424                        2.15e+003
   1   425                        2.15e+003
   1   426                        2.15e+003
   1   427                        2.15e+003
   1   428                        2.16e+003
   1   429                        2.16e+003
   1   430                        2.16e+003
   1   431                        2.16e+003
   1   432                        2.16e+003
   1   433                        2.17e+003
   1   434                        2.17e+003
   1   435                        2.17e+003
   1   436                        2.17e+003
   1   437                        2.17e+003
   1   438                        2.18e+003
   1   439                        2.18e+003
   1   440                        2.18e+003
   1   441                        2.18e+003
   1   442                        2.18e+003
   1   443                        2.19e+003
   1   444                        2.19e+003
   1   445                        2.19e+003
   1   446                        2.19e+003
   1   447                        2.19e+003
   1   448                        2.20e+003
   1   449                        2.20e+003
   1   450                        2.20e+003
   1   451                        2.20e+003
   1   452                        2.20e+003
   1   453                        2.21e+003
   1   454                        2.21e+003
   1   455                        2.21e+003
   1   456                        2.21e+003
   1   457                        2.21e+003
   1   458                        2.22e+003
   1   459                        2.22e+003
   1   460                        2.22e+003
   1   461                        2.22e+003
   1   462                        2.22e+003
   1   463                        2.23e+003
   1   464                        2.23e+003
   1   465                        2.23e+003
   1   466                        2.23e+003
   1   467                        2.23e+003
   1   468                        2.24e+003
   1   469                        2.24e+003
   1   470                        2.24e+003
   1   471                        2.24e+003
   1   472                        2.24e+003
   1   473                        2.25e+003
   1   474                        2.25e+003
   1   475                        2.25e+003
   1   476                        2.25e+003
   1   477                        2.25e+003
   1   478                        2.26e+003
   1   479                        2.26e+003
   1   480                        2.26e+003
   1   481                        2.26e+003
   1   482                        2.26e+003
   1   483                        2.27e+003
   1   484                        2.27e+003
   1   485                        2.27e+003
   1   486                        2.27e+003
   1   487                        2.27e+003
   1   488                        2.28e+003
   1   489                        2.28e+003
   1   490                        2.28e+003
   1   491                        2.28e+003
   1   492                        2.28e+003
   1   493                        2.29e+003
   1   494                        2.29e+003
   1   495                        2.29e+003
   1   496                        2.29e+003
   1   497                        2.29e+003
   1   498                        2.30e+003
   1   499                        2.30e+003
   1   500                        2.30e+003
   1   501                        2.30e+003
   1   502                        2.30e+003
   1   503                        2.31e+003
   1   504                        2.31e+003
   1   505                        2.31e+003
   1   506                        2.31e+003
   1   507                        2.31e+003
   1   508                        2.32e+003
   1   509                        2.32e+003
   1   510                        2.32e+003
   1   511                        2.32e+003
   1   512                        2.32e+003
   1   513                        2.33e+003
   1   514                        2.33e+003
   1   515                        2.33e+003
   1   516                        2.33e+003
   1   517                        2.33e+003
   1   518                        2.34e+003
   1   519                        2.34e+003
   1   520                        2.34e+003
   1   521                        2.34e+003
   1   522                        2.34e+003
   1   523                        2.35e+003
   1   524                        2.35e+003
   1   525                        2.35e+003
   1   526                        2.35e+003
   1   527                        2.35e+003
   1   528                        2.36e+003
   1   529                        2.36e+003
   1   530                        2.36e+003
   1   531                        2.36e+003
   1   532                        2.36e+003
   1   533                        2.37e+003
   1   534                        2.37e+003
   1   535                        2.37e+003
   1   536                        2.37e+003
   1   537                        2.37e+003
   1   538                        2.38e+003
   1   539                        2.38e+003
   1   540                        2.38e+003
   1   541                        2.38e+003
   1   542                        2.38e+003
   1   543                        2.39e+003
   1   544                        2.39e+003
   1   545                        2.39e+003
   1   546                        2.39e+003
   1   547                        2.39e+003
   1   548                        2.40e+003
   1   549                        2.40e+003
   1   550                        2.40e+003
                          
 THE ANALYSIS HAS COMPLETED SUCCESSFULLY
