 Abaqus/Standard 6.13-1                  DATE 20-Feb-2016 TIME 12:03:50
 SUMMARY OF JOB INFORMATION:
 STEP  INC ATT SEVERE EQUIL TOTAL  TOTAL      STEP       INC OF       DOF    IF
               DISCON ITERS ITERS  TIME/    TIME/LPF    TIME/LPF    MONITOR RIKS
               ITERS               FREQ
   1     1   1     0     1     1  1.00e-013  1.00e-013  1.000e-013
   1     2   1     0     1     1  2.00e-013  2.00e-013  1.000e-013
   1     3   1     0     1     1  3.00e-013  3.00e-013  1.000e-013
   1     4   1     0     1     1  4.25e-013  4.25e-013  1.250e-013
   1     5   1     0     1     1  5.81e-013  5.81e-013  1.562e-013
   1     6   1     0     1     1  7.77e-013  7.77e-013  1.953e-013
   1     7   1     0     1     1  1.02e-012  1.02e-012  2.441e-013
   1     8   1     0     1     1  1.33e-012  1.33e-012  3.052e-013
   1     9   1     0     1     1  1.71e-012  1.71e-012  3.815e-013
   1    10   1     0     1     1  2.18e-012  2.18e-012  4.768e-013
   1    11   1     0     1     1  2.78e-012  2.78e-012  5.960e-013
   1    12   1     0     1     1  3.53e-012  3.53e-012  7.451e-013
   1    13   1     0     1     1  4.46e-012  4.46e-012  9.313e-013
   1    14   1     0     1     1  5.62e-012  5.62e-012  1.164e-012
   1    15   1     0     1     1  7.08e-012  7.08e-012  1.455e-012
   1    16   1     0     1     1  8.89e-012  8.89e-012  1.819e-012
   1    17   1     0     1     1  1.12e-011  1.12e-011  2.274e-012
   1    18   1     0     1     1  1.40e-011  1.40e-011  2.842e-012
   1    19   1     0     1     1  1.76e-011  1.76e-011  3.553e-012
   1    20   1     0     1     1  2.20e-011  2.20e-011  4.441e-012
   1    21   1     0     1     1  2.76e-011  2.76e-011  5.551e-012
   1    22   1     0     1     1  3.45e-011  3.45e-011  6.939e-012
   1    23   1     0     1     1  4.32e-011  4.32e-011  8.674e-012
   1    24   1     0     1     1  5.40e-011  5.40e-011  1.084e-011
   1    25   1     0     1     1  6.76e-011  6.76e-011  1.355e-011
   1    26   1     0     1     1  8.45e-011  8.45e-011  1.694e-011
   1    27   1     0     1     1  1.06e-010  1.06e-010  2.118e-011
   1    28   1     0     1     1  1.32e-010  1.32e-010  2.647e-011
   1    29   1     0     1     1  1.65e-010  1.65e-010  3.309e-011
   1    30   1     0     1     1  2.07e-010  2.07e-010  4.136e-011
   1    31   1     0     1     1  2.58e-010  2.58e-010  5.170e-011
   1    32   1     0     1     1  3.23e-010  3.23e-010  6.462e-011
   1    33   1     0     1     1  4.04e-010  4.04e-010  8.078e-011
   1    34   1     0     1     1  5.05e-010  5.05e-010  1.010e-010
   1    35   1     0     1     1  6.31e-010  6.31e-010  1.262e-010
   1    36   1     0     1     1  7.89e-010  7.89e-010  1.578e-010
   1    37   1     0     1     1  9.86e-010  9.86e-010  1.972e-010
   1    38   1     0     1     1  1.23e-009  1.23e-009  2.465e-010
   1    39   1     0     1     1  1.54e-009  1.54e-009  3.081e-010
   1    40   1     0     1     1  1.93e-009  1.93e-009  3.852e-010
   1    41   1     0     1     1  2.41e-009  2.41e-009  4.815e-010
   1    42   1     0     1     1  3.01e-009  3.01e-009  6.019e-010
   1    43   1     0     1     1  3.76e-009  3.76e-009  7.523e-010
   1    44   1     0     1     1  4.70e-009  4.70e-009  9.404e-010
   1    45   1     0     1     1  5.88e-009  5.88e-009  1.175e-009
   1    46   1     0     1     1  7.35e-009  7.35e-009  1.469e-009
   1    47   1     0     1     1  9.18e-009  9.18e-009  1.837e-009
   1    48   1     0     1     1  1.15e-008  1.15e-008  2.296e-009
   1    49   1     0     1     1  1.43e-008  1.43e-008  2.870e-009
   1    50   1     0     1     1  1.79e-008  1.79e-008  3.587e-009
   1    51   1     0     1     1  2.24e-008  2.24e-008  4.484e-009
   1    52   1     0     1     1  2.80e-008  2.80e-008  5.605e-009
   1    53   1     0     1     1  3.50e-008  3.50e-008  7.006e-009
   1    54   1     0     1     1  4.38e-008  4.38e-008  8.758e-009
   1    55   1     0     1     1  5.47e-008  5.47e-008  1.095e-008
   1    56   1     0     1     1  6.84e-008  6.84e-008  1.368e-008
   1    57   1     0     1     1  8.55e-008  8.55e-008  1.711e-008
   1    58   1     0     1     1  1.07e-007  1.07e-007  2.138e-008
   1    59   1     0     1     1  1.34e-007  1.34e-007  2.673e-008
   1    60   1     0     1     1  1.67e-007  1.67e-007  3.341e-008
   1    61   1     0     1     1  2.09e-007  2.09e-007  4.176e-008
   1    62   1     0     1     1  2.61e-007  2.61e-007  5.220e-008
   1    63   1     0     1     1  3.26e-007  3.26e-007  6.525e-008
   1    64   1     0     1     1  4.08e-007  4.08e-007  8.157e-008
   1    65   1     0     1     1  5.10e-007  5.10e-007  1.020e-007
   1    66   1     0     1     1  6.37e-007  6.37e-007  1.274e-007
   1    67   1     0     1     1  7.97e-007  7.97e-007  1.593e-007
   1    68   1     0     1     1  9.96e-007  9.96e-007  1.991e-007
   1    69   1     0     1     1  1.24e-006  1.24e-006  2.489e-007
   1    70   1     0     1     1  1.56e-006  1.56e-006  3.112e-007
   1    71   1     0     1     1  1.94e-006  1.94e-006  3.889e-007
   1    72   1     0     1     1  2.43e-006  2.43e-006  4.862e-007
   1    73   1     0     1     1  3.04e-006  3.04e-006  6.077e-007
   1    74   1     0     1     1  3.80e-006  3.80e-006  7.596e-007
   1    75   1     0     2     2  4.75e-006  4.75e-006  9.496e-007
   1    76   1     0     2     2  5.93e-006  5.93e-006  1.187e-006
   1    77   1     0     2     2  7.42e-006  7.42e-006  1.484e-006
   1    78   1     0     2     2  9.27e-006  9.27e-006  1.855e-006
   1    79   1     0     2     2  1.16e-005  1.16e-005  2.318e-006
   1    80   1     0     2     2  1.45e-005  1.45e-005  2.898e-006
   1    81   1     0     2     2  1.81e-005  1.81e-005  3.622e-006
   1    82   1     0     2     2  2.26e-005  2.26e-005  4.528e-006
   1    83   1     0     2     2  2.83e-005  2.83e-005  5.660e-006
   1    84   1     0     2     2  3.54e-005  3.54e-005  7.075e-006
   1    85   1     0     2     2  4.42e-005  4.42e-005  8.843e-006
   1    86   1     0     2     2  5.42e-005  5.42e-005  1.000e-005
   1    87   1     0     2     2  6.42e-005  6.42e-005  1.000e-005
   1    88   1     0     2     2  7.42e-005  7.42e-005  1.000e-005
   1    89   1     0     2     2  8.42e-005  8.42e-005  1.000e-005
   1    90   1     0     2     2  9.42e-005  9.42e-005  1.000e-005
   1    91   1     0     2     2  0.000104   0.000104   1.000e-005
   1    92   1     0     2     2  0.000114   0.000114   1.000e-005
   1    93   1     0     2     2  0.000124   0.000124   1.000e-005
   1    94   1     0     2     2  0.000134   0.000134   1.000e-005
   1    95   1     0     2     2  0.000144   0.000144   1.000e-005
   1    96   1     0     2     2  0.000154   0.000154   1.000e-005
   1    97   1     0     2     2  0.000164   0.000164   1.000e-005
   1    98   1     0     2     2  0.000174   0.000174   1.000e-005
   1    99   1     0     2     2  0.000184   0.000184   1.000e-005
   1   100   1     0     2     2  0.000194   0.000194   1.000e-005
   1   101   1     0     2     2  0.000204   0.000204   1.000e-005
   1   102   1     0     2     2  0.000214   0.000214   1.000e-005
   1   103   1     0     2     2  0.000224   0.000224   1.000e-005
   1   104   1     0     2     2  0.000234   0.000234   1.000e-005
   1   105   1     0     2     2  0.000244   0.000244   1.000e-005
   1   106   1     0     2     2  0.000254   0.000254   1.000e-005
   1   107   1     0     2     2  0.000264   0.000264   1.000e-005
   1   108   1     0     2     2  0.000274   0.000274   1.000e-005
   1   109   1     0     2     2  0.000284   0.000284   1.000e-005
   1   110   1     0     2     2  0.000294   0.000294   1.000e-005
   1   111   1     0     2     2  0.000304   0.000304   1.000e-005
   1   112   1     0     1     1  0.000314   0.000314   1.000e-005
   1   113   1     0     1     1  0.000324   0.000324   1.000e-005
   1   114   1     0     1     1  0.000334   0.000334   1.000e-005
   1   115   1     0     1     1  0.000344   0.000344   1.000e-005
   1   116   1     0     1     1  0.000354   0.000354   1.000e-005
   1   117   1     0     1     1  0.000364   0.000364   1.000e-005
   1   118   1     0     1     1  0.000374   0.000374   1.000e-005
   1   119   1     0     1     1  0.000384   0.000384   1.000e-005
   1   120   1     0     1     1  0.000394   0.000394   1.000e-005
   1   121   1     0     1     1  0.000404   0.000404   1.000e-005
   1   122   1     0     1     1  0.000414   0.000414   1.000e-005
   1   123   1     0     1     1  0.000424   0.000424   1.000e-005
   1   124   1     0     1     1  0.000434   0.000434   1.000e-005
   1   125   1     0     1     1  0.000444   0.000444   1.000e-005
   1   126   1     0     1     1  0.000454   0.000454   1.000e-005
   1   127   1     0     1     1  0.000464   0.000464   1.000e-005
   1   128   1     0     1     1  0.000474   0.000474   1.000e-005
   1   129   1     0     1     1  0.000484   0.000484   1.000e-005
   1   130   1     0     1     1  0.000494   0.000494   1.000e-005
   1   131   1     0     1     1  0.000504   0.000504   1.000e-005
   1   132   1     0     1     1  0.000514   0.000514   1.000e-005
   1   133   1     0     1     1  0.000524   0.000524   1.000e-005
   1   134   1     0     1     1  0.000534   0.000534   1.000e-005
   1   135   1     0     1     1  0.000544   0.000544   1.000e-005
   1   136   1     0     1     1  0.000554   0.000554   1.000e-005
   1   137   1     0     1     1  0.000564   0.000564   1.000e-005
   1   138   1     0     1     1  0.000574   0.000574   1.000e-005
   1   139   1     0     1     1  0.000584   0.000584   1.000e-005
   1   140   1     0     1     1  0.000594   0.000594   1.000e-005
   1   141   1     0     1     1  0.000604   0.000604   1.000e-005
   1   142   1     0     1     1  0.000614   0.000614   1.000e-005
   1   143   1     0     1     1  0.000624   0.000624   1.000e-005
   1   144   1     0     1     1  0.000634   0.000634   1.000e-005
   1   145   1     0     1     1  0.000644   0.000644   1.000e-005
   1   146   1     0     1     1  0.000654   0.000654   1.000e-005
   1   147   1     0     1     1  0.000664   0.000664   1.000e-005
   1   148   1     0     1     1  0.000674   0.000674   1.000e-005
   1   149   1     0     1     1  0.000684   0.000684   1.000e-005
   1   150   1     0     1     1  0.000694   0.000694   1.000e-005
   1   151   1     0     1     1  0.000704   0.000704   1.000e-005
   1   152   1     0     1     1  0.000714   0.000714   1.000e-005
   1   153   1     0     1     1  0.000724   0.000724   1.000e-005
   1   154   1     0     1     1  0.000734   0.000734   1.000e-005
   1   155   1     0     1     1  0.000744   0.000744   1.000e-005
   1   156   1     0     1     1  0.000754   0.000754   1.000e-005
   1   157   1     0     1     1  0.000764   0.000764   1.000e-005
   1   158   1     0     1     1  0.000774   0.000774   1.000e-005
   1   159   1     0     1     1  0.000784   0.000784   1.000e-005
   1   160   1     0     1     1  0.000794   0.000794   1.000e-005
   1   161   1     0     1     1  0.000804   0.000804   1.000e-005
   1   162   1     0     1     1  0.000814   0.000814   1.000e-005
   1   163   1     0     2     2  0.000824   0.000824   1.000e-005
   1   164   1     0     2     2  0.000834   0.000834   1.000e-005
   1   165   1     0     2     2  0.000844   0.000844   1.000e-005
   1   166   1     0     2     2  0.000854   0.000854   1.000e-005
   1   167   1     0     2     2  0.000864   0.000864   1.000e-005
   1   168   1     0     2     2  0.000874   0.000874   1.000e-005
   1   169   1     0     2     2  0.000884   0.000884   1.000e-005
   1   170   1     0     2     2  0.000894   0.000894   1.000e-005
   1   171   1     0     2     2  0.000904   0.000904   1.000e-005
   1   172   1     0     2     2  0.000914   0.000914   1.000e-005
   1   173   1     0     2     2  0.000924   0.000924   1.000e-005
   1   174   1     0     2     2  0.000934   0.000934   1.000e-005
   1   175   1     0     2     2  0.000944   0.000944   1.000e-005
   1   176   1     0     2     2  0.000954   0.000954   1.000e-005
   1   177   1     0     2     2  0.000964   0.000964   1.000e-005
   1   178   1     0     2     2  0.000974   0.000974   1.000e-005
   1   179   1     0     2     2  0.000984   0.000984   1.000e-005
   1   180   1     0     2     2  0.000994   0.000994   1.000e-005
   1   181   1     0     2     2  0.00100    0.00100    1.000e-005
   1   182   1     0     2     2  0.00101    0.00101    1.000e-005
   1   183   1     0     2     2  0.00102    0.00102    1.000e-005
   1   184   1     0     2     2  0.00103    0.00103    1.000e-005
   1   185   1     0     2     2  0.00104    0.00104    1.000e-005
   1   186   1     0     2     2  0.00105    0.00105    1.000e-005
   1   187   1     0     2     2  0.00106    0.00106    1.000e-005
   1   188   1     0     1     1  0.00107    0.00107    1.000e-005
   1   189   1     0     1     1  0.00108    0.00108    1.000e-005
   1   190   1     0     1     1  0.00109    0.00109    1.000e-005
   1   191   1     0     1     1  0.00110    0.00110    1.000e-005
   1   192   1     0     1     1  0.00111    0.00111    1.000e-005
   1   193   1     0     1     1  0.00112    0.00112    1.000e-005
   1   194   1     0     1     1  0.00113    0.00113    1.000e-005
   1   195   1     0     1     1  0.00114    0.00114    1.000e-005
   1   196   1     0     1     1  0.00115    0.00115    1.000e-005
   1   197   1     0     1     1  0.00116    0.00116    1.000e-005
   1   198   1     0     1     1  0.00117    0.00117    1.000e-005
   1   199   1     0     1     1  0.00118    0.00118    1.000e-005
   1   200   1     0     1     1  0.00119    0.00119    1.000e-005
   1   201   1     0     1     1  0.00120    0.00120    1.000e-005
   1   202   1     0     1     1  0.00121    0.00121    1.000e-005
   1   203   1     0     1     1  0.00122    0.00122    1.000e-005
   1   204   1     0     1     1  0.00123    0.00123    1.000e-005
   1   205   1     0     1     1  0.00124    0.00124    1.000e-005
   1   206   1     0     1     1  0.00125    0.00125    1.000e-005
   1   207   1     0     1     1  0.00126    0.00126    1.000e-005
   1   208   1     0     1     1  0.00127    0.00127    1.000e-005
   1   209   1     0     1     1  0.00128    0.00128    1.000e-005
   1   210   1     0     2     2  0.00129    0.00129    1.000e-005
   1   211   1     0     1     1  0.00130    0.00130    1.000e-005
   1   212   1     0     1     1  0.00131    0.00131    1.000e-005
   1   213   1     0     1     1  0.00132    0.00132    1.000e-005
   1   214   1     0     1     1  0.00133    0.00133    1.000e-005
   1   215   1     0     1     1  0.00134    0.00134    1.000e-005
   1   216   1     0     1     1  0.00135    0.00135    1.000e-005
   1   217   1     0     1     1  0.00136    0.00136    1.000e-005
   1   218   1     0     1     1  0.00137    0.00137    1.000e-005
   1   219   1     0     1     1  0.00138    0.00138    1.000e-005
   1   220   1     0     1     1  0.00139    0.00139    1.000e-005
   1   221   1     0     1     1  0.00140    0.00140    1.000e-005
   1   222   1     0     1     1  0.00141    0.00141    1.000e-005
   1   223   1     0     1     1  0.00142    0.00142    1.000e-005
   1   224   1     0     1     1  0.00143    0.00143    1.000e-005
   1   225   1     0     1     1  0.00144    0.00144    1.000e-005
   1   226   1     0     1     1  0.00145    0.00145    1.000e-005
   1   227   1     0     1     1  0.00146    0.00146    1.000e-005
   1   228   1     0     1     1  0.00147    0.00147    1.000e-005
   1   229   1     0     1     1  0.00148    0.00148    1.000e-005
   1   230   1     0     1     1  0.00149    0.00149    1.000e-005
   1   231   1     0     1     1  0.00150    0.00150    1.000e-005
   1   232   1     0     1     1  0.00151    0.00151    1.000e-005
   1   233   1     0     1     1  0.00152    0.00152    1.000e-005
   1   234   1     0     1     1  0.00153    0.00153    1.000e-005
   1   235   1     0     1     1  0.00154    0.00154    1.000e-005
   1   236   1     0     1     1  0.00155    0.00155    1.000e-005
   1   237   1     0     1     1  0.00156    0.00156    1.000e-005
   1   238   1     0     1     1  0.00157    0.00157    1.000e-005
   1   239   1     0     1     1  0.00158    0.00158    1.000e-005
   1   240   1     0     1     1  0.00159    0.00159    1.000e-005
   1   241   1     0     1     1  0.00160    0.00160    1.000e-005
   1   242   1     0     1     1  0.00161    0.00161    1.000e-005
   1   243   1     0     1     1  0.00162    0.00162    1.000e-005
   1   244   1     0     1     1  0.00163    0.00163    1.000e-005
   1   245   1     0     1     1  0.00164    0.00164    1.000e-005
   1   246   1     0     1     1  0.00165    0.00165    1.000e-005
   1   247   1     0     1     1  0.00166    0.00166    1.000e-005
   1   248   1     0     1     1  0.00167    0.00167    1.000e-005
   1   249   1     0     1     1  0.00168    0.00168    1.000e-005
   1   250   1     0     1     1  0.00169    0.00169    1.000e-005
   1   251   1     0     1     1  0.00170    0.00170    1.000e-005
   1   252   1     0     2     2  0.00171    0.00171    1.000e-005
   1   253   1     0     2     2  0.00172    0.00172    1.000e-005
   1   254   1     0     2     2  0.00173    0.00173    1.000e-005
   1   255   1     0     2     2  0.00174    0.00174    1.000e-005
   1   256   1     0     2     2  0.00175    0.00175    1.000e-005
   1   257   1     0     2     2  0.00176    0.00176    1.000e-005
   1   258   1     0     2     2  0.00177    0.00177    1.000e-005
   1   259   1     0     2     2  0.00178    0.00178    1.000e-005
   1   260   1     0     2     2  0.00179    0.00179    1.000e-005
   1   261   1     0     2     2  0.00180    0.00180    1.000e-005
   1   262   1     0     2     2  0.00181    0.00181    1.000e-005
   1   263   1     0     2     2  0.00182    0.00182    1.000e-005
   1   264   1     0     2     2  0.00183    0.00183    1.000e-005
   1   265   1     0     2     2  0.00184    0.00184    1.000e-005
   1   266   1     0     2     2  0.00185    0.00185    1.000e-005
   1   267   1     0     2     2  0.00186    0.00186    1.000e-005
   1   268   1     0     2     2  0.00187    0.00187    1.000e-005
   1   269   1     0     2     2  0.00188    0.00188    1.000e-005
   1   270   1     0     2     2  0.00189    0.00189    1.000e-005
   1   271   1     0     2     2  0.00190    0.00190    1.000e-005
   1   272   1     0     2     2  0.00191    0.00191    1.000e-005
   1   273   1     0     2     2  0.00192    0.00192    1.000e-005
   1   274   1     0     2     2  0.00193    0.00193    1.000e-005
   1   275   1     0     2     2  0.00194    0.00194    1.000e-005
   1   276   1     0     2     2  0.00195    0.00195    1.000e-005
   1   277   1     0     2     2  0.00196    0.00196    1.000e-005
   1   278   1     0     2     2  0.00197    0.00197    1.000e-005
   1   279   1     0     1     1  0.00198    0.00198    1.000e-005
   1   280   1     0     1     1  0.00199    0.00199    1.000e-005
   1   281   1     0     1     1  0.00200    0.00200    1.000e-005
   1   282   1     0     1     1  0.00201    0.00201    1.000e-005
   1   283   1     0     1     1  0.00202    0.00202    1.000e-005
   1   284   1     0     1     1  0.00203    0.00203    1.000e-005
   1   285   1     0     1     1  0.00204    0.00204    1.000e-005
   1   286   1     0     1     1  0.00205    0.00205    1.000e-005
   1   287   1     0     1     1  0.00206    0.00206    1.000e-005
   1   288   1     0     1     1  0.00207    0.00207    1.000e-005
   1   289   1     0     1     1  0.00208    0.00208    1.000e-005
   1   290   1     0     1     1  0.00209    0.00209    1.000e-005
   1   291   1     0     1     1  0.00210    0.00210    1.000e-005
   1   292   1     0     1     1  0.00211    0.00211    1.000e-005
   1   293   1     0     1     1  0.00212    0.00212    1.000e-005
   1   294   1     0     1     1  0.00213    0.00213    1.000e-005
   1   295   1     0     1     1  0.00214    0.00214    1.000e-005
   1   296   1     0     1     1  0.00215    0.00215    1.000e-005
   1   297   1     0     1     1  0.00216    0.00216    1.000e-005
   1   298   1     0     1     1  0.00217    0.00217    1.000e-005
   1   299   1     0     1     1  0.00218    0.00218    1.000e-005
   1   300   1     0     1     1  0.00219    0.00219    1.000e-005
   1   301   1     0     1     1  0.00220    0.00220    1.000e-005
   1   302   1     0     1     1  0.00221    0.00221    1.000e-005
   1   303   1     0     1     1  0.00222    0.00222    1.000e-005
   1   304   1     0     1     1  0.00223    0.00223    1.000e-005
   1   305   1     0     1     1  0.00224    0.00224    1.000e-005
   1   306   1     0     1     1  0.00225    0.00225    1.000e-005
   1   307   1     0     1     1  0.00226    0.00226    1.000e-005
   1   308   1     0     1     1  0.00227    0.00227    1.000e-005
   1   309   1     0     1     1  0.00228    0.00228    1.000e-005
   1   310   1     0     1     1  0.00229    0.00229    1.000e-005
   1   311   1     0     1     1  0.00230    0.00230    1.000e-005
   1   312   1     0     1     1  0.00231    0.00231    1.000e-005
   1   313   1     0     1     1  0.00232    0.00232    1.000e-005
   1   314   1     0     1     1  0.00233    0.00233    1.000e-005
   1   315   1     0     1     1  0.00234    0.00234    1.000e-005
   1   316   1     0     1     1  0.00235    0.00235    1.000e-005
   1   317   1     0     1     1  0.00236    0.00236    1.000e-005
   1   318   1     0     1     1  0.00237    0.00237    1.000e-005
   1   319   1     0     1     1  0.00238    0.00238    1.000e-005
   1   320   1     0     1     1  0.00239    0.00239    1.000e-005
   1   321   1     0     1     1  0.00240    0.00240    1.000e-005
   1   322   1     0     1     1  0.00241    0.00241    1.000e-005
   1   323   1     0     1     1  0.00242    0.00242    1.000e-005
   1   324   1     0     1     1  0.00243    0.00243    1.000e-005
   1   325   1     0     1     1  0.00244    0.00244    1.000e-005
   1   326   1     0     1     1  0.00245    0.00245    1.000e-005
   1   327   1     0     1     1  0.00246    0.00246    1.000e-005
   1   328   1     0     1     1  0.00247    0.00247    1.000e-005
   1   329   1     0     1     1  0.00248    0.00248    1.000e-005
   1   330   1     0     1     1  0.00249    0.00249    1.000e-005
   1   331   1     0     1     1  0.00250    0.00250    1.000e-005
   1   332   1     0     1     1  0.00251    0.00251    1.000e-005
   1   333   1     0     2     2  0.00252    0.00252    1.000e-005
   1   334   1     0     1     1  0.00253    0.00253    1.000e-005
   1   335   1     0     2     2  0.00254    0.00254    1.000e-005
   1   336   1     0     2     2  0.00255    0.00255    1.000e-005
   1   337   1     0     2     2  0.00256    0.00256    1.000e-005
   1   338   1     0     2     2  0.00257    0.00257    1.000e-005
   1   339   1     0     2     2  0.00258    0.00258    1.000e-005
   1   340   1     0     2     2  0.00259    0.00259    1.000e-005
   1   341   1     0     2     2  0.00260    0.00260    1.000e-005
   1   342   1     0     2     2  0.00261    0.00261    1.000e-005
   1   343   1     0     2     2  0.00262    0.00262    1.000e-005
   1   344   1     0     2     2  0.00263    0.00263    1.000e-005
   1   345   1     0     2     2  0.00264    0.00264    1.000e-005
   1   346   1     0     2     2  0.00265    0.00265    1.000e-005
   1   347   1     0     2     2  0.00266    0.00266    1.000e-005
   1   348   1     0     2     2  0.00267    0.00267    1.000e-005
   1   349   1     0     2     2  0.00268    0.00268    1.000e-005
   1   350   1     0     2     2  0.00269    0.00269    1.000e-005
   1   351   1     0     2     2  0.00270    0.00270    1.000e-005
   1   352   1     0     2     2  0.00271    0.00271    1.000e-005
   1   353   1     0     2     2  0.00272    0.00272    1.000e-005
   1   354   1     0     2     2  0.00273    0.00273    1.000e-005
   1   355   1     0     2     2  0.00274    0.00274    1.000e-005
   1   356   1     0     2     2  0.00275    0.00275    1.000e-005
   1   357   1     0     2     2  0.00276    0.00276    1.000e-005
   1   358   1     0     2     2  0.00277    0.00277    1.000e-005
   1   359   1     0     2     2  0.00278    0.00278    1.000e-005
   1   360   1     0     2     2  0.00279    0.00279    1.000e-005
   1   361   1     0     1     1  0.00280    0.00280    1.000e-005
   1   362   1     0     1     1  0.00281    0.00281    1.000e-005
   1   363   1     0     1     1  0.00282    0.00282    1.000e-005
   1   364   1     0     1     1  0.00283    0.00283    1.000e-005
   1   365   1     0     1     1  0.00284    0.00284    1.000e-005
   1   366   1     0     1     1  0.00285    0.00285    1.000e-005
   1   367   1     0     1     1  0.00286    0.00286    1.000e-005
   1   368   1     0     1     1  0.00287    0.00287    1.000e-005
   1   369   1     0     1     1  0.00288    0.00288    1.000e-005
   1   370   1     0     1     1  0.00289    0.00289    1.000e-005
   1   371   1     0     1     1  0.00290    0.00290    1.000e-005
   1   372   1     0     1     1  0.00291    0.00291    1.000e-005
   1   373   1     0     1     1  0.00292    0.00292    1.000e-005
   1   374   1     0     1     1  0.00293    0.00293    1.000e-005
   1   375   1     0     1     1  0.00294    0.00294    1.000e-005
   1   376   1     0     1     1  0.00295    0.00295    1.000e-005
   1   377   1     0     1     1  0.00296    0.00296    1.000e-005
   1   378   1     0     1     1  0.00297    0.00297    1.000e-005
   1   379   1     0     1     1  0.00298    0.00298    1.000e-005
   1   380   1     0     1     1  0.00299    0.00299    1.000e-005
   1   381   1     0     1     1  0.00300    0.00300    1.000e-005
   1   382   1     0     1     1  0.00301    0.00301    1.000e-005
   1   383   1     0     1     1  0.00302    0.00302    1.000e-005
   1   384   1     0     1     1  0.00303    0.00303    1.000e-005
   1   385   1     0     1     1  0.00304    0.00304    1.000e-005
   1   386   1     0     1     1  0.00305    0.00305    1.000e-005
   1   387   1     0     1     1  0.00306    0.00306    1.000e-005
   1   388   1     0     1     1  0.00307    0.00307    1.000e-005
   1   389   1     0     1     1  0.00308    0.00308    1.000e-005
   1   390   1     0     1     1  0.00309    0.00309    1.000e-005
   1   391   1     0     1     1  0.00310    0.00310    1.000e-005
   1   392   1     0     1     1  0.00311    0.00311    1.000e-005
   1   393   1     0     1     1  0.00312    0.00312    1.000e-005
   1   394   1     0     1     1  0.00313    0.00313    1.000e-005
   1   395   1     0     1     1  0.00314    0.00314    1.000e-005
   1   396   1     0     1     1  0.00315    0.00315    1.000e-005
   1   397   1     0     1     1  0.00316    0.00316    1.000e-005
   1   398   1     0     1     1  0.00317    0.00317    1.000e-005
   1   399   1     0     1     1  0.00318    0.00318    1.000e-005
   1   400   1     0     1     1  0.00319    0.00319    1.000e-005
   1   401   1     0     1     1  0.00320    0.00320    1.000e-005
   1   402   1     0     1     1  0.00321    0.00321    1.000e-005
   1   403   1     0     1     1  0.00322    0.00322    1.000e-005
   1   404   1     0     1     1  0.00323    0.00323    1.000e-005
   1   405   1     0     1     1  0.00324    0.00324    1.000e-005
   1   406   1     0     1     1  0.00325    0.00325    1.000e-005
   1   407   1     0     1     1  0.00326    0.00326    1.000e-005
   1   408   1     0     1     1  0.00327    0.00327    1.000e-005
   1   409   1     0     1     1  0.00328    0.00328    1.000e-005
   1   410   1     0     1     1  0.00329    0.00329    1.000e-005
   1   411   1     0     1     1  0.00330    0.00330    1.000e-005
   1   412   1     0     1     1  0.00331    0.00331    1.000e-005
   1   413   1     0     1     1  0.00332    0.00332    1.000e-005
   1   414   1     0     1     1  0.00333    0.00333    1.000e-005
   1   415   1     0     1     1  0.00334    0.00334    1.000e-005
   1   416   1     0     2     2  0.00335    0.00335    1.000e-005
   1   417   1     0     2     2  0.00336    0.00336    1.000e-005
   1   418   1     0     2     2  0.00337    0.00337    1.000e-005
   1   419   1     0     2     2  0.00338    0.00338    1.000e-005
   1   420   1     0     2     2  0.00339    0.00339    1.000e-005
   1   421   1     0     2     2  0.00340    0.00340    1.000e-005
   1   422   1     0     2     2  0.00341    0.00341    1.000e-005
   1   423   1     0     2     2  0.00342    0.00342    1.000e-005
   1   424   1     0     2     2  0.00343    0.00343    1.000e-005
   1   425   1     0     2     2  0.00344    0.00344    1.000e-005
   1   426   1     0     2     2  0.00345    0.00345    1.000e-005
   1   427   1     0     2     2  0.00346    0.00346    1.000e-005
   1   428   1     0     2     2  0.00347    0.00347    1.000e-005
   1   429   1     0     2     2  0.00348    0.00348    1.000e-005
   1   430   1     0     2     2  0.00349    0.00349    1.000e-005
   1   431   1     0     2     2  0.00350    0.00350    1.000e-005
   1   432   1     0     2     2  0.00351    0.00351    1.000e-005
   1   433   1     0     2     2  0.00352    0.00352    1.000e-005
   1   434   1     0     2     2  0.00353    0.00353    1.000e-005
   1   435   1     0     2     2  0.00354    0.00354    1.000e-005
   1   436   1     0     2     2  0.00355    0.00355    1.000e-005
   1   437   1     0     2     2  0.00356    0.00356    1.000e-005
   1   438   1     0     2     2  0.00357    0.00357    1.000e-005
   1   439   1     0     2     2  0.00358    0.00358    1.000e-005
   1   440   1     0     2     2  0.00359    0.00359    1.000e-005
   1   441   1     0     2     2  0.00360    0.00360    1.000e-005
   1   442   1     0     2     2  0.00361    0.00361    1.000e-005
   1   443   1     0     1     1  0.00362    0.00362    1.000e-005
   1   444   1     0     1     1  0.00363    0.00363    1.000e-005
   1   445   1     0     1     1  0.00364    0.00364    1.000e-005
   1   446   1     0     1     1  0.00365    0.00365    1.000e-005
   1   447   1     0     1     1  0.00366    0.00366    1.000e-005
   1   448   1     0     1     1  0.00367    0.00367    1.000e-005
   1   449   1     0     1     1  0.00368    0.00368    1.000e-005
   1   450   1     0     1     1  0.00369    0.00369    1.000e-005
   1   451   1     0     1     1  0.00370    0.00370    1.000e-005
   1   452   1     0     1     1  0.00371    0.00371    1.000e-005
   1   453   1     0     1     1  0.00372    0.00372    1.000e-005
   1   454   1     0     1     1  0.00373    0.00373    1.000e-005
   1   455   1     0     1     1  0.00374    0.00374    1.000e-005
   1   456   1     0     1     1  0.00375    0.00375    1.000e-005
   1   457   1     0     1     1  0.00376    0.00376    1.000e-005
   1   458   1     0     1     1  0.00377    0.00377    1.000e-005
   1   459   1     0     1     1  0.00378    0.00378    1.000e-005
   1   460   1     0     1     1  0.00379    0.00379    1.000e-005
   1   461   1     0     1     1  0.00380    0.00380    1.000e-005
   1   462   1     0     1     1  0.00381    0.00381    1.000e-005
   1   463   1     0     1     1  0.00382    0.00382    1.000e-005
   1   464   1     0     1     1  0.00383    0.00383    1.000e-005
   1   465   1     0     1     1  0.00384    0.00384    1.000e-005
   1   466   1     0     1     1  0.00385    0.00385    1.000e-005
   1   467   1     0     1     1  0.00386    0.00386    1.000e-005
   1   468   1     0     1     1  0.00387    0.00387    1.000e-005
   1   469   1     0     1     1  0.00388    0.00388    1.000e-005
   1   470   1     0     1     1  0.00389    0.00389    1.000e-005
   1   471   1     0     1     1  0.00390    0.00390    1.000e-005
   1   472   1     0     1     1  0.00391    0.00391    1.000e-005
   1   473   1     0     1     1  0.00392    0.00392    1.000e-005
   1   474   1     0     1     1  0.00393    0.00393    1.000e-005
   1   475   1     0     1     1  0.00394    0.00394    1.000e-005
   1   476   1     0     1     1  0.00395    0.00395    1.000e-005
   1   477   1     0     1     1  0.00396    0.00396    1.000e-005
   1   478   1     0     1     1  0.00397    0.00397    1.000e-005
   1   479   1     0     1     1  0.00398    0.00398    1.000e-005
   1   480   1     0     1     1  0.00399    0.00399    1.000e-005
   1   481   1     0     1     1  0.00400    0.00400    1.000e-005
   1   482   1     0     1     1  0.00401    0.00401    1.000e-005
   1   483   1     0     1     1  0.00402    0.00402    1.000e-005
   1   484   1     0     1     1  0.00403    0.00403    1.000e-005
   1   485   1     0     1     1  0.00404    0.00404    1.000e-005
   1   486   1     0     1     1  0.00405    0.00405    1.000e-005
   1   487   1     0     1     1  0.00406    0.00406    1.000e-005
   1   488   1     0     1     1  0.00407    0.00407    1.000e-005
   1   489   1     0     1     1  0.00408    0.00408    1.000e-005
   1   490   1     0     1     1  0.00409    0.00409    1.000e-005
   1   491   1     0     1     1  0.00410    0.00410    1.000e-005
   1   492   1     0     1     1  0.00411    0.00411    1.000e-005
   1   493   1     0     1     1  0.00412    0.00412    1.000e-005
   1   494   1     0     1     1  0.00413    0.00413    1.000e-005
   1   495   1     0     1     1  0.00414    0.00414    1.000e-005
   1   496   1     0     1     1  0.00415    0.00415    1.000e-005
   1   497   1     0     1     1  0.00416    0.00416    1.000e-005
   1   498   1     0     2     2  0.00417    0.00417    1.000e-005
   1   499   1     0     2     2  0.00418    0.00418    1.000e-005
   1   500   1     0     2     2  0.00419    0.00419    1.000e-005
   1   501   1     0     2     2  0.00420    0.00420    1.000e-005
   1   502   1     0     2     2  0.00421    0.00421    1.000e-005
   1   503   1     0     2     2  0.00422    0.00422    1.000e-005
   1   504   1     0     2     2  0.00423    0.00423    1.000e-005
   1   505   1     0     2     2  0.00424    0.00424    1.000e-005
   1   506   1     0     2     2  0.00425    0.00425    1.000e-005
   1   507   1     0     2     2  0.00426    0.00426    1.000e-005
   1   508   1     0     2     2  0.00427    0.00427    1.000e-005
   1   509   1     0     2     2  0.00428    0.00428    1.000e-005
   1   510   1     0     2     2  0.00429    0.00429    1.000e-005
   1   511   1     0     2     2  0.00430    0.00430    1.000e-005
   1   512   1     0     2     2  0.00431    0.00431    1.000e-005
   1   513   1     0     2     2  0.00432    0.00432    1.000e-005
   1   514   1     0     2     2  0.00433    0.00433    1.000e-005
   1   515   1     0     2     2  0.00434    0.00434    1.000e-005
   1   516   1     0     2     2  0.00435    0.00435    1.000e-005
   1   517   1     0     2     2  0.00436    0.00436    1.000e-005
   1   518   1     0     2     2  0.00437    0.00437    1.000e-005
   1   519   1     0     2     2  0.00438    0.00438    1.000e-005
   1   520   1     0     2     2  0.00439    0.00439    1.000e-005
   1   521   1     0     2     2  0.00440    0.00440    1.000e-005
   1   522   1     0     2     2  0.00441    0.00441    1.000e-005
   1   523   1     0     2     2  0.00442    0.00442    1.000e-005
   1   524   1     0     2     2  0.00443    0.00443    1.000e-005
   1   525   1     0     2     2  0.00444    0.00444    1.000e-005
   1   526   1     0     1     1  0.00445    0.00445    1.000e-005
   1   527   1     0     1     1  0.00446    0.00446    1.000e-005
   1   528   1     0     1     1  0.00447    0.00447    1.000e-005
   1   529   1     0     1     1  0.00448    0.00448    1.000e-005
   1   530   1     0     1     1  0.00449    0.00449    1.000e-005
   1   531   1     0     1     1  0.00450    0.00450    1.000e-005
   1   532   1     0     1     1  0.00451    0.00451    1.000e-005
   1   533   1     0     1     1  0.00452    0.00452    1.000e-005
   1   534   1     0     1     1  0.00453    0.00453    1.000e-005
   1   535   1     0     1     1  0.00454    0.00454    1.000e-005
   1   536   1     0     1     1  0.00455    0.00455    1.000e-005
   1   537   1     0     1     1  0.00456    0.00456    1.000e-005
   1   538   1     0     1     1  0.00457    0.00457    1.000e-005
   1   539   1     0     1     1  0.00458    0.00458    1.000e-005
   1   540   1     0     1     1  0.00459    0.00459    1.000e-005
   1   541   1     0     1     1  0.00460    0.00460    1.000e-005
   1   542   1     0     1     1  0.00461    0.00461    1.000e-005
   1   543   1     0     1     1  0.00462    0.00462    1.000e-005
   1   544   1     0     1     1  0.00463    0.00463    1.000e-005
   1   545   1     0     1     1  0.00464    0.00464    1.000e-005
   1   546   1     0     1     1  0.00465    0.00465    1.000e-005
   1   547   1     0     1     1  0.00466    0.00466    1.000e-005
   1   548   1     0     1     1  0.00467    0.00467    1.000e-005
   1   549   1     0     1     1  0.00468    0.00468    1.000e-005
   1   550   1     0     1     1  0.00469    0.00469    1.000e-005
   1   551   1     0     1     1  0.00470    0.00470    1.000e-005
   1   552   1     0     1     1  0.00471    0.00471    1.000e-005
   1   553   1     0     1     1  0.00472    0.00472    1.000e-005
   1   554   1     0     1     1  0.00473    0.00473    1.000e-005
   1   555   1     0     1     1  0.00474    0.00474    1.000e-005
   1   556   1     0     1     1  0.00475    0.00475    1.000e-005
   1   557   1     0     1     1  0.00476    0.00476    1.000e-005
   1   558   1     0     1     1  0.00477    0.00477    1.000e-005
   1   559   1     0     1     1  0.00478    0.00478    1.000e-005
   1   560   1     0     1     1  0.00479    0.00479    1.000e-005
   1   561   1     0     1     1  0.00480    0.00480    1.000e-005
   1   562   1     0     1     1  0.00481    0.00481    1.000e-005
   1   563   1     0     1     1  0.00482    0.00482    1.000e-005
   1   564   1     0     1     1  0.00483    0.00483    1.000e-005
   1   565   1     0     1     1  0.00484    0.00484    1.000e-005
   1   566   1     0     1     1  0.00485    0.00485    1.000e-005
   1   567   1     0     1     1  0.00486    0.00486    1.000e-005
   1   568   1     0     1     1  0.00487    0.00487    1.000e-005
   1   569   1     0     1     1  0.00488    0.00488    1.000e-005
   1   570   1     0     1     1  0.00489    0.00489    1.000e-005
   1   571   1     0     1     1  0.00490    0.00490    1.000e-005
   1   572   1     0     1     1  0.00491    0.00491    1.000e-005
   1   573   1     0     1     1  0.00492    0.00492    1.000e-005
   1   574   1     0     1     1  0.00493    0.00493    1.000e-005
   1   575   1     0     1     1  0.00494    0.00494    1.000e-005
   1   576   1     0     1     1  0.00495    0.00495    1.000e-005
   1   577   1     0     1     1  0.00496    0.00496    1.000e-005
   1   578   1     0     1     1  0.00497    0.00497    1.000e-005
   1   579   1     0     1     1  0.00498    0.00498    1.000e-005
   1   580   1     0     1     1  0.00499    0.00499    1.000e-005
   1   581   1     0     2     2  0.00500    0.00500    1.000e-005
   1   582   1     0     2     2  0.00501    0.00501    1.000e-005
   1   583   1     0     2     2  0.00502    0.00502    1.000e-005
   1   584   1     0     2     2  0.00503    0.00503    1.000e-005
   1   585   1     0     2     2  0.00504    0.00504    1.000e-005
   1   586   1     0     2     2  0.00505    0.00505    1.000e-005
   1   587   1     0     2     2  0.00506    0.00506    1.000e-005
   1   588   1     0     2     2  0.00507    0.00507    1.000e-005
   1   589   1     0     2     2  0.00508    0.00508    1.000e-005
   1   590   1     0     2     2  0.00509    0.00509    1.000e-005
   1   591   1     0     2     2  0.00510    0.00510    1.000e-005
   1   592   1     0     2     2  0.00511    0.00511    1.000e-005
   1   593   1     0     2     2  0.00512    0.00512    1.000e-005
   1   594   1     0     2     2  0.00513    0.00513    1.000e-005
   1   595   1     0     2     2  0.00514    0.00514    1.000e-005
   1   596   1     0     2     2  0.00515    0.00515    1.000e-005
   1   597   1     0     2     2  0.00516    0.00516    1.000e-005
   1   598   1     0     2     2  0.00517    0.00517    1.000e-005
   1   599   1     0     2     2  0.00518    0.00518    1.000e-005
   1   600   1     0     2     2  0.00519    0.00519    1.000e-005
   1   601   1     0     2     2  0.00520    0.00520    1.000e-005
   1   602   1     0     2     2  0.00521    0.00521    1.000e-005
   1   603   1     0     2     2  0.00522    0.00522    1.000e-005
   1   604   1     0     2     2  0.00523    0.00523    1.000e-005
   1   605   1     0     2     2  0.00524    0.00524    1.000e-005
   1   606   1     0     2     2  0.00525    0.00525    1.000e-005
   1   607   1     0     2     2  0.00526    0.00526    1.000e-005
   1   608   1     0     2     2  0.00527    0.00527    1.000e-005
   1   609   1     0     1     1  0.00528    0.00528    1.000e-005
   1   610   1     0     1     1  0.00529    0.00529    1.000e-005
   1   611   1     0     1     1  0.00530    0.00530    1.000e-005
   1   612   1     0     1     1  0.00531    0.00531    1.000e-005
   1   613   1     0     1     1  0.00532    0.00532    1.000e-005
   1   614   1     0     1     1  0.00533    0.00533    1.000e-005
   1   615   1     0     1     1  0.00534    0.00534    1.000e-005
   1   616   1     0     1     1  0.00535    0.00535    1.000e-005
   1   617   1     0     1     1  0.00536    0.00536    1.000e-005
   1   618   1     0     1     1  0.00537    0.00537    1.000e-005
   1   619   1     0     1     1  0.00538    0.00538    1.000e-005
   1   620   1     0     1     1  0.00539    0.00539    1.000e-005
   1   621   1     0     1     1  0.00540    0.00540    1.000e-005
   1   622   1     0     1     1  0.00541    0.00541    1.000e-005
   1   623   1     0     1     1  0.00542    0.00542    1.000e-005
   1   624   1     0     1     1  0.00543    0.00543    1.000e-005
   1   625   1     0     1     1  0.00544    0.00544    1.000e-005
   1   626   1     0     1     1  0.00545    0.00545    1.000e-005
   1   627   1     0     2     2  0.00546    0.00546    1.000e-005
   1   628   1     0     1     1  0.00547    0.00547    1.000e-005
   1   629   1     0     1     1  0.00548    0.00548    1.000e-005
   1   630   1     0     1     1  0.00549    0.00549    1.000e-005
   1   631   1     0     1     1  0.00550    0.00550    1.000e-005
   1   632   1     0     1     1  0.00551    0.00551    1.000e-005
   1   633   1     0     1     1  0.00552    0.00552    1.000e-005
   1   634   1     0     1     1  0.00553    0.00553    1.000e-005
   1   635   1     0     1     1  0.00554    0.00554    1.000e-005
   1   636   1     0     1     1  0.00555    0.00555    1.000e-005
   1   637   1     0     1     1  0.00556    0.00556    1.000e-005
   1   638   1     0     1     1  0.00557    0.00557    1.000e-005
   1   639   1     0     1     1  0.00558    0.00558    1.000e-005
   1   640   1     0     1     1  0.00559    0.00559    1.000e-005
   1   641   1     0     1     1  0.00560    0.00560    1.000e-005
   1   642   1     0     1     1  0.00561    0.00561    1.000e-005
   1   643   1     0     1     1  0.00562    0.00562    1.000e-005
   1   644   1     0     1     1  0.00563    0.00563    1.000e-005
   1   645   1     0     1     1  0.00564    0.00564    1.000e-005
   1   646   1     0     1     1  0.00565    0.00565    1.000e-005
   1   647   1     0     1     1  0.00566    0.00566    1.000e-005
   1   648   1     0     1     1  0.00567    0.00567    1.000e-005
   1   649   1     0     1     1  0.00568    0.00568    1.000e-005
   1   650   1     0     1     1  0.00569    0.00569    1.000e-005
   1   651   1     0     1     1  0.00570    0.00570    1.000e-005
   1   652   1     0     1     1  0.00571    0.00571    1.000e-005
   1   653   1     0     1     1  0.00572    0.00572    1.000e-005
   1   654   1     0     1     1  0.00573    0.00573    1.000e-005
   1   655   1     0     1     1  0.00574    0.00574    1.000e-005
   1   656   1     0     1     1  0.00575    0.00575    1.000e-005
   1   657   1     0     1     1  0.00576    0.00576    1.000e-005
   1   658   1     0     1     1  0.00577    0.00577    1.000e-005
   1   659   1     0     1     1  0.00578    0.00578    1.000e-005
   1   660   1     0     2     2  0.00579    0.00579    1.000e-005
   1   661   1     0     1     1  0.00580    0.00580    1.000e-005
   1   662   1     0     1     1  0.00581    0.00581    1.000e-005
   1   663   1     0     1     1  0.00582    0.00582    1.000e-005
   1   664   1     0     1     1  0.00583    0.00583    1.000e-005
   1   665   1     0     1     1  0.00584    0.00584    1.000e-005
   1   666   1     0     1     1  0.00585    0.00585    1.000e-005
   1   667   1     0     2     2  0.00586    0.00586    1.000e-005
   1   668   1     0     2     2  0.00587    0.00587    1.000e-005
   1   669   1     0     2     2  0.00588    0.00588    1.000e-005
   1   670   1     0     2     2  0.00589    0.00589    1.000e-005
   1   671   1     0     2     2  0.00590    0.00590    1.000e-005
   1   672   1     0     2     2  0.00591    0.00591    1.000e-005
   1   673   1     0     2     2  0.00592    0.00592    1.000e-005
   1   674   1     0     2     2  0.00593    0.00593    1.000e-005
   1   675   1     0     2     2  0.00594    0.00594    1.000e-005
   1   676   1     0     2     2  0.00595    0.00595    1.000e-005
   1   677   1     0     2     2  0.00596    0.00596    1.000e-005
   1   678   1     0     2     2  0.00597    0.00597    1.000e-005
   1   679   1     0     2     2  0.00598    0.00598    1.000e-005
   1   680   1     0     2     2  0.00599    0.00599    1.000e-005
   1   681   1     0     2     2  0.00600    0.00600    1.000e-005
   1   682   1     0     2     2  0.00601    0.00601    1.000e-005
   1   683   1     0     2     2  0.00602    0.00602    1.000e-005
   1   684   1     0     2     2  0.00603    0.00603    1.000e-005
   1   685   1     0     2     2  0.00604    0.00604    1.000e-005
   1   686   1     0     2     2  0.00605    0.00605    1.000e-005
   1   687   1     0     2     2  0.00606    0.00606    1.000e-005
   1   688   1     0     2     2  0.00607    0.00607    1.000e-005
   1   689   1     0     2     2  0.00608    0.00608    1.000e-005
   1   690   1     0     2     2  0.00609    0.00609    1.000e-005
   1   691   1     0     2     2  0.00610    0.00610    1.000e-005
   1   692   1     0     1     1  0.00611    0.00611    1.000e-005
   1   693   1     0     1     1  0.00612    0.00612    1.000e-005
   1   694   1     0     1     1  0.00613    0.00613    1.000e-005
   1   695   1     0     1     1  0.00614    0.00614    1.000e-005
   1   696   1     0     1     1  0.00615    0.00615    1.000e-005
   1   697   1     0     1     1  0.00616    0.00616    1.000e-005
   1   698   1     0     1     1  0.00617    0.00617    1.000e-005
   1   699   1     0     1     1  0.00618    0.00618    1.000e-005
   1   700   1     0     1     1  0.00619    0.00619    1.000e-005
   1   701   1     0     1     1  0.00620    0.00620    1.000e-005
   1   702   1     0     1     1  0.00621    0.00621    1.000e-005
   1   703   1     0     1     1  0.00622    0.00622    1.000e-005
   1   704   1     0     1     1  0.00623    0.00623    1.000e-005
   1   705   1     0     1     1  0.00624    0.00624    1.000e-005
   1   706   1     0     1     1  0.00625    0.00625    1.000e-005
   1   707   1     0     1     1  0.00626    0.00626    1.000e-005
   1   708   1     0     1     1  0.00627    0.00627    1.000e-005
   1   709   1     0     1     1  0.00628    0.00628    1.000e-005
   1   710   1     0     1     1  0.00629    0.00629    1.000e-005
   1   711   1     0     1     1  0.00630    0.00630    1.000e-005
   1   712   1     0     1     1  0.00631    0.00631    1.000e-005
   1   713   1     0     1     1  0.00632    0.00632    1.000e-005
   1   714   1     0     1     1  0.00633    0.00633    1.000e-005
   1   715   1     0     1     1  0.00634    0.00634    1.000e-005
   1   716   1     0     1     1  0.00635    0.00635    1.000e-005
   1   717   1     0     1     1  0.00636    0.00636    1.000e-005
   1   718   1     0     1     1  0.00637    0.00637    1.000e-005
   1   719   1     0     1     1  0.00638    0.00638    1.000e-005
   1   720   1     0     1     1  0.00639    0.00639    1.000e-005
   1   721   1     0     1     1  0.00640    0.00640    1.000e-005
   1   722   1     0     1     1  0.00641    0.00641    1.000e-005
   1   723   1     0     1     1  0.00642    0.00642    1.000e-005
   1   724   1     0     1     1  0.00643    0.00643    1.000e-005
   1   725   1     0     2     2  0.00644    0.00644    1.000e-005
   1   726   1     0     1     1  0.00645    0.00645    1.000e-005
   1   727   1     0     1     1  0.00646    0.00646    1.000e-005
   1   728   1     0     1     1  0.00647    0.00647    1.000e-005
   1   729   1     0     1     1  0.00648    0.00648    1.000e-005
   1   730   1     0     1     1  0.00649    0.00649    1.000e-005
   1   731   1     0     1     1  0.00650    0.00650    1.000e-005
   1   732   1     0     1     1  0.00651    0.00651    1.000e-005
   1   733   1     0     1     1  0.00652    0.00652    1.000e-005
   1   734   1     0     1     1  0.00653    0.00653    1.000e-005
   1   735   1     0     1     1  0.00654    0.00654    1.000e-005
   1   736   1     0     1     1  0.00655    0.00655    1.000e-005
   1   737   1     0     1     1  0.00656    0.00656    1.000e-005
   1   738   1     0     1     1  0.00657    0.00657    1.000e-005
   1   739   1     0     1     1  0.00658    0.00658    1.000e-005
   1   740   1     0     1     1  0.00659    0.00659    1.000e-005
   1   741   1     0     1     1  0.00660    0.00660    1.000e-005
   1   742   1     0     1     1  0.00661    0.00661    1.000e-005
   1   743   1     0     1     1  0.00662    0.00662    1.000e-005
   1   744   1     0     1     1  0.00663    0.00663    1.000e-005
   1   745   1     0     1     1  0.00664    0.00664    1.000e-005
   1   746   1     0     1     1  0.00665    0.00665    1.000e-005
   1   747   1     0     1     1  0.00666    0.00666    1.000e-005
   1   748   1     0     1     1  0.00667    0.00667    1.000e-005
   1   749   1     0     2     2  0.00668    0.00668    1.000e-005
   1   750   1     0     2     2  0.00669    0.00669    1.000e-005
   1   751   1     0     1     1  0.00670    0.00670    1.000e-005
   1   752   1     0     2     2  0.00671    0.00671    1.000e-005
   1   753   1     0     2     2  0.00672    0.00672    1.000e-005
   1   754   1     0     2     2  0.00673    0.00673    1.000e-005
   1   755   1     0     2     2  0.00674    0.00674    1.000e-005
   1   756   1     0     2     2  0.00675    0.00675    1.000e-005
   1   757   1     0     2     2  0.00676    0.00676    1.000e-005
   1   758   1     0     2     2  0.00677    0.00677    1.000e-005
   1   759   1     0     2     2  0.00678    0.00678    1.000e-005
   1   760   1     0     2     2  0.00679    0.00679    1.000e-005
   1   761   1     0     2     2  0.00680    0.00680    1.000e-005
   1   762   1     0     2     2  0.00681    0.00681    1.000e-005
   1   763   1     0     2     2  0.00682    0.00682    1.000e-005
   1   764   1     0     2     2  0.00683    0.00683    1.000e-005
   1   765   1     0     2     2  0.00684    0.00684    1.000e-005
   1   766   1     0     2     2  0.00685    0.00685    1.000e-005
   1   767   1     0     2     2  0.00686    0.00686    1.000e-005
   1   768   1     0     2     2  0.00687    0.00687    1.000e-005
   1   769   1     0     2     2  0.00688    0.00688    1.000e-005
   1   770   1     0     2     2  0.00689    0.00689    1.000e-005
   1   771   1     0     2     2  0.00690    0.00690    1.000e-005
   1   772   1     0     2     2  0.00691    0.00691    1.000e-005
   1   773   1     0     2     2  0.00692    0.00692    1.000e-005
   1   774   1     0     2     2  0.00693    0.00693    1.000e-005
   1   775   1     0     2     2  0.00694    0.00694    1.000e-005
   1   776   1     0     1     1  0.00695    0.00695    1.000e-005
   1   777   1     0     1     1  0.00696    0.00696    1.000e-005
   1   778   1     0     1     1  0.00697    0.00697    1.000e-005
   1   779   1     0     1     1  0.00698    0.00698    1.000e-005
   1   780   1     0     1     1  0.00699    0.00699    1.000e-005
   1   781   1     0     1     1  0.00700    0.00700    1.000e-005
   1   782   1     0     1     1  0.00701    0.00701    1.000e-005
   1   783   1     0     1     1  0.00702    0.00702    1.000e-005
   1   784   1     0     1     1  0.00703    0.00703    1.000e-005
   1   785   1     0     1     1  0.00704    0.00704    1.000e-005
   1   786   1     0     1     1  0.00705    0.00705    1.000e-005
   1   787   1     0     1     1  0.00706    0.00706    1.000e-005
   1   788   1     0     1     1  0.00707    0.00707    1.000e-005
   1   789   1     0     1     1  0.00708    0.00708    1.000e-005
   1   790   1     0     1     1  0.00709    0.00709    1.000e-005
   1   791   1     0     1     1  0.00710    0.00710    1.000e-005
   1   792   1     0     1     1  0.00711    0.00711    1.000e-005
   1   793   1     0     1     1  0.00712    0.00712    1.000e-005
   1   794   1     0     1     1  0.00713    0.00713    1.000e-005
   1   795   1     0     1     1  0.00714    0.00714    1.000e-005
   1   796   1     0     1     1  0.00715    0.00715    1.000e-005
   1   797   1     0     1     1  0.00716    0.00716    1.000e-005
   1   798   1     0     1     1  0.00717    0.00717    1.000e-005
   1   799   1     0     1     1  0.00718    0.00718    1.000e-005
   1   800   1     0     1     1  0.00719    0.00719    1.000e-005
   1   801   1     0     1     1  0.00720    0.00720    1.000e-005
   1   802   1     0     1     1  0.00721    0.00721    1.000e-005
   1   803   1     0     1     1  0.00722    0.00722    1.000e-005
   1   804   1     0     1     1  0.00723    0.00723    1.000e-005
   1   805   1     0     1     1  0.00724    0.00724    1.000e-005
   1   806   1     0     1     1  0.00725    0.00725    1.000e-005
   1   807   1     0     1     1  0.00726    0.00726    1.000e-005
   1   808   1     0     1     1  0.00727    0.00727    1.000e-005
   1   809   1     0     1     1  0.00728    0.00728    1.000e-005
   1   810   1     0     1     1  0.00729    0.00729    1.000e-005
   1   811   1     0     1     1  0.00730    0.00730    1.000e-005
   1   812   1     0     1     1  0.00731    0.00731    1.000e-005
   1   813   1     0     1     1  0.00732    0.00732    1.000e-005
   1   814   1     0     1     1  0.00733    0.00733    1.000e-005
   1   815   1     0     1     1  0.00734    0.00734    1.000e-005
   1   816   1     0     1     1  0.00735    0.00735    1.000e-005
   1   817   1     0     1     1  0.00736    0.00736    1.000e-005
   1   818   1     0     1     1  0.00737    0.00737    1.000e-005
   1   819   1     0     1     1  0.00738    0.00738    1.000e-005
   1   820   1     0     1     1  0.00739    0.00739    1.000e-005
   1   821   1     0     1     1  0.00740    0.00740    1.000e-005
   1   822   1     0     1     1  0.00741    0.00741    1.000e-005
   1   823   1     0     1     1  0.00742    0.00742    1.000e-005
   1   824   1     0     1     1  0.00743    0.00743    1.000e-005
   1   825   1     0     1     1  0.00744    0.00744    1.000e-005
   1   826   1     0     1     1  0.00745    0.00745    1.000e-005
   1   827   1     0     1     1  0.00746    0.00746    1.000e-005
   1   828   1     0     2     2  0.00747    0.00747    1.000e-005
   1   829   1     0     2     2  0.00748    0.00748    1.000e-005
   1   830   1     0     1     1  0.00749    0.00749    1.000e-005
   1   831   1     0     1     1  0.00750    0.00750    1.000e-005
   1   832   1     0     2     2  0.00751    0.00751    1.000e-005
   1   833   1     0     2     2  0.00752    0.00752    1.000e-005
   1   834   1     0     2     2  0.00753    0.00753    1.000e-005
   1   835   1     0     2     2  0.00754    0.00754    1.000e-005
   1   836   1     0     2     2  0.00755    0.00755    1.000e-005
   1   837   1     0     2     2  0.00756    0.00756    1.000e-005
   1   838   1     0     2     2  0.00757    0.00757    1.000e-005
   1   839   1     0     2     2  0.00758    0.00758    1.000e-005
   1   840   1     0     2     2  0.00759    0.00759    1.000e-005
   1   841   1     0     2     2  0.00760    0.00760    1.000e-005
   1   842   1     0     2     2  0.00761    0.00761    1.000e-005
   1   843   1     0     2     2  0.00762    0.00762    1.000e-005
   1   844   1     0     2     2  0.00763    0.00763    1.000e-005
   1   845   1     0     2     2  0.00764    0.00764    1.000e-005
   1   846   1     0     2     2  0.00765    0.00765    1.000e-005
   1   847   1     0     2     2  0.00766    0.00766    1.000e-005
   1   848   1     0     2     2  0.00767    0.00767    1.000e-005
   1   849   1     0     2     2  0.00768    0.00768    1.000e-005
   1   850   1     0     2     2  0.00769    0.00769    1.000e-005
   1   851   1     0     2     2  0.00770    0.00770    1.000e-005
   1   852   1     0     2     2  0.00771    0.00771    1.000e-005
   1   853   1     0     2     2  0.00772    0.00772    1.000e-005
   1   854   1     0     2     2  0.00773    0.00773    1.000e-005
   1   855   1     0     2     2  0.00774    0.00774    1.000e-005
   1   856   1     0     1     1  0.00775    0.00775    1.000e-005
   1   857   1     0     1     1  0.00776    0.00776    1.000e-005
   1   858   1     0     1     1  0.00777    0.00777    1.000e-005
   1   859   1     0     1     1  0.00778    0.00778    1.000e-005
   1   860   1     0     1     1  0.00779    0.00779    1.000e-005
   1   861   1     0     1     1  0.00780    0.00780    1.000e-005
   1   862   1     0     1     1  0.00781    0.00781    1.000e-005
   1   863   1     0     1     1  0.00782    0.00782    1.000e-005
   1   864   1     0     1     1  0.00783    0.00783    1.000e-005
   1   865   1     0     1     1  0.00784    0.00784    1.000e-005
   1   866   1     0     1     1  0.00785    0.00785    1.000e-005
   1   867   1     0     1     1  0.00786    0.00786    1.000e-005
   1   868   1     0     1     1  0.00787    0.00787    1.000e-005
   1   869   1     0     1     1  0.00788    0.00788    1.000e-005
   1   870   1     0     1     1  0.00789    0.00789    1.000e-005
   1   871   1     0     1     1  0.00790    0.00790    1.000e-005
   1   872   1     0     1     1  0.00791    0.00791    1.000e-005
   1   873   1     0     1     1  0.00792    0.00792    1.000e-005
   1   874   1     0     1     1  0.00793    0.00793    1.000e-005
   1   875   1     0     1     1  0.00794    0.00794    1.000e-005
   1   876   1     0     1     1  0.00795    0.00795    1.000e-005
   1   877   1     0     1     1  0.00796    0.00796    1.000e-005
   1   878   1     0     1     1  0.00797    0.00797    1.000e-005
   1   879   1     0     1     1  0.00798    0.00798    1.000e-005
   1   880   1     0     1     1  0.00799    0.00799    1.000e-005
   1   881   1     0     1     1  0.00800    0.00800    1.000e-005
   1   882   1     0     1     1  0.00801    0.00801    1.000e-005
   1   883   1     0     1     1  0.00802    0.00802    1.000e-005
   1   884   1     0     1     1  0.00803    0.00803    1.000e-005
   1   885   1     0     1     1  0.00804    0.00804    1.000e-005
   1   886   1     0     1     1  0.00805    0.00805    1.000e-005
   1   887   1     0     1     1  0.00806    0.00806    1.000e-005
   1   888   1     0     1     1  0.00807    0.00807    1.000e-005
   1   889   1     0     1     1  0.00808    0.00808    1.000e-005
   1   890   1     0     1     1  0.00809    0.00809    1.000e-005
   1   891   1     0     1     1  0.00810    0.00810    1.000e-005
   1   892   1     0     1     1  0.00811    0.00811    1.000e-005
   1   893   1     0     1     1  0.00812    0.00812    1.000e-005
   1   894   1     0     1     1  0.00813    0.00813    1.000e-005
   1   895   1     0     1     1  0.00814    0.00814    1.000e-005
   1   896   1     0     1     1  0.00815    0.00815    1.000e-005
   1   897   1     0     1     1  0.00816    0.00816    1.000e-005
   1   898   1     0     1     1  0.00817    0.00817    1.000e-005
   1   899   1     0     1     1  0.00818    0.00818    1.000e-005
   1   900   1     0     1     1  0.00819    0.00819    1.000e-005
   1   901   1     0     1     1  0.00820    0.00820    1.000e-005
   1   902   1     0     1     1  0.00821    0.00821    1.000e-005
   1   903   1     0     1     1  0.00822    0.00822    1.000e-005
   1   904   1     0     1     1  0.00823    0.00823    1.000e-005
   1   905   1     0     1     1  0.00824    0.00824    1.000e-005
   1   906   1     0     2     2  0.00825    0.00825    1.000e-005
   1   907   1     0     2     2  0.00826    0.00826    1.000e-005
   1   908   1     0     1     1  0.00827    0.00827    1.000e-005
   1   909   1     0     1     1  0.00828    0.00828    1.000e-005
   1   910   1     0     1     1  0.00829    0.00829    1.000e-005
   1   911   1     0     2     2  0.00830    0.00830    1.000e-005
   1   912   1     0     2     2  0.00831    0.00831    1.000e-005
   1   913   1     0     2     2  0.00832    0.00832    1.000e-005
   1   914   1     0     2     2  0.00833    0.00833    1.000e-005
   1   915   1     0     2     2  0.00834    0.00834    1.000e-005
   1   916   1     0     2     2  0.00835    0.00835    1.000e-005
   1   917   1     0     2     2  0.00836    0.00836    1.000e-005
   1   918   1     0     2     2  0.00837    0.00837    1.000e-005
   1   919   1     0     2     2  0.00838    0.00838    1.000e-005
   1   920   1     0     2     2  0.00839    0.00839    1.000e-005
   1   921   1     0     2     2  0.00840    0.00840    1.000e-005
   1   922   1     0     2     2  0.00841    0.00841    1.000e-005
   1   923   1     0     2     2  0.00842    0.00842    1.000e-005
   1   924   1     0     2     2  0.00843    0.00843    1.000e-005
   1   925   1     0     2     2  0.00844    0.00844    1.000e-005
   1   926   1     0     2     2  0.00845    0.00845    1.000e-005
   1   927   1     0     2     2  0.00846    0.00846    1.000e-005
   1   928   1     0     2     2  0.00847    0.00847    1.000e-005
   1   929   1     0     2     2  0.00848    0.00848    1.000e-005
   1   930   1     0     2     2  0.00849    0.00849    1.000e-005
   1   931   1     0     2     2  0.00850    0.00850    1.000e-005
   1   932   1     0     2     2  0.00851    0.00851    1.000e-005
   1   933   1     0     2     2  0.00852    0.00852    1.000e-005
   1   934   1     0     1     1  0.00853    0.00853    1.000e-005
   1   935   1     0     1     1  0.00854    0.00854    1.000e-005
   1   936   1     0     1     1  0.00855    0.00855    1.000e-005
   1   937   1     0     1     1  0.00856    0.00856    1.000e-005
   1   938   1     0     1     1  0.00857    0.00857    1.000e-005
   1   939   1     0     1     1  0.00858    0.00858    1.000e-005
   1   940   1     0     1     1  0.00859    0.00859    1.000e-005
   1   941   1     0     1     1  0.00860    0.00860    1.000e-005
   1   942   1     0     1     1  0.00861    0.00861    1.000e-005
   1   943   1     0     1     1  0.00862    0.00862    1.000e-005
   1   944   1     0     1     1  0.00863    0.00863    1.000e-005
   1   945   1     0     1     1  0.00864    0.00864    1.000e-005
   1   946   1     0     1     1  0.00865    0.00865    1.000e-005
   1   947   1     0     1     1  0.00866    0.00866    1.000e-005
   1   948   1     0     1     1  0.00867    0.00867    1.000e-005
   1   949   1     0     1     1  0.00868    0.00868    1.000e-005
   1   950   1     0     1     1  0.00869    0.00869    1.000e-005
   1   951   1     0     1     1  0.00870    0.00870    1.000e-005
   1   952   1     0     1     1  0.00871    0.00871    1.000e-005
   1   953   1     0     1     1  0.00872    0.00872    1.000e-005
   1   954   1     0     1     1  0.00873    0.00873    1.000e-005
   1   955   1     0     1     1  0.00874    0.00874    1.000e-005
   1   956   1     0     1     1  0.00875    0.00875    1.000e-005
   1   957   1     0     1     1  0.00876    0.00876    1.000e-005
   1   958   1     0     1     1  0.00877    0.00877    1.000e-005
   1   959   1     0     1     1  0.00878    0.00878    1.000e-005
   1   960   1     0     1     1  0.00879    0.00879    1.000e-005
   1   961   1     0     1     1  0.00880    0.00880    1.000e-005
   1   962   1     0     1     1  0.00881    0.00881    1.000e-005
   1   963   1     0     1     1  0.00882    0.00882    1.000e-005
   1   964   1     0     1     1  0.00883    0.00883    1.000e-005
   1   965   1     0     1     1  0.00884    0.00884    1.000e-005
   1   966   1     0     1     1  0.00885    0.00885    1.000e-005
   1   967   1     0     1     1  0.00886    0.00886    1.000e-005
   1   968   1     0     1     1  0.00887    0.00887    1.000e-005
   1   969   1     0     1     1  0.00888    0.00888    1.000e-005
   1   970   1     0     1     1  0.00889    0.00889    1.000e-005
   1   971   1     0     1     1  0.00890    0.00890    1.000e-005
   1   972   1     0     1     1  0.00891    0.00891    1.000e-005
   1   973   1     0     1     1  0.00892    0.00892    1.000e-005
   1   974   1     0     1     1  0.00893    0.00893    1.000e-005
   1   975   1     0     1     1  0.00894    0.00894    1.000e-005
   1   976   1     0     1     1  0.00895    0.00895    1.000e-005
   1   977   1     0     1     1  0.00896    0.00896    1.000e-005
   1   978   1     0     1     1  0.00897    0.00897    1.000e-005
   1   979   1     0     1     1  0.00898    0.00898    1.000e-005
   1   980   1     0     1     1  0.00899    0.00899    1.000e-005
   1   981   1     0     2     2  0.00900    0.00900    1.000e-005
   1   982   1     0     2     2  0.00901    0.00901    1.000e-005
   1   983   1     0     1     1  0.00902    0.00902    1.000e-005
   1   984   1     0     1     1  0.00903    0.00903    1.000e-005
   1   985   1     0     1     1  0.00904    0.00904    1.000e-005
   1   986   1     0     2     2  0.00905    0.00905    1.000e-005
   1   987   1     0     2     2  0.00906    0.00906    1.000e-005
   1   988   1     0     1     1  0.00907    0.00907    1.000e-005
   1   989   1     0     1     1  0.00908    0.00908    1.000e-005
   1   990   1     0     1     1  0.00909    0.00909    1.000e-005
   1   991   1     0     2     2  0.00910    0.00910    1.000e-005
   1   992   1     0     2     2  0.00911    0.00911    1.000e-005
   1   993   1     0     1     1  0.00912    0.00912    1.000e-005
   1   994   1     0     2     2  0.00913    0.00913    1.000e-005
   1   995   1     0     2     2  0.00914    0.00914    1.000e-005
   1   996   1     0     2     2  0.00915    0.00915    1.000e-005
   1   997   1     0     2     2  0.00916    0.00916    1.000e-005
   1   998   1     0     2     2  0.00917    0.00917    1.000e-005
   1   999   1     0     2     2  0.00918    0.00918    1.000e-005
   1  1000   1     0     2     2  0.00919    0.00919    1.000e-005
   1  1001   1     0     2     2  0.00920    0.00920    1.000e-005
   1  1002   1     0     2     2  0.00921    0.00921    1.000e-005
   1  1003   1     0     2     2  0.00922    0.00922    1.000e-005
   1  1004   1     0     2     2  0.00923    0.00923    1.000e-005
   1  1005   1     0     2     2  0.00924    0.00924    1.000e-005
   1  1006   1     0     2     2  0.00925    0.00925    1.000e-005
   1  1007   1     0     2     2  0.00926    0.00926    1.000e-005
   1  1008   1     0     2     2  0.00927    0.00927    1.000e-005
   1  1009   1     0     2     2  0.00928    0.00928    1.000e-005
   1  1010   1     0     1     1  0.00929    0.00929    1.000e-005
   1  1011   1     0     1     1  0.00930    0.00930    1.000e-005
   1  1012   1     0     1     1  0.00931    0.00931    1.000e-005
   1  1013   1     0     1     1  0.00932    0.00932    1.000e-005
   1  1014   1     0     1     1  0.00933    0.00933    1.000e-005
   1  1015   1     0     1     1  0.00934    0.00934    1.000e-005
   1  1016   1     0     1     1  0.00935    0.00935    1.000e-005
   1  1017   1     0     1     1  0.00936    0.00936    1.000e-005
   1  1018   1     0     1     1  0.00937    0.00937    1.000e-005
   1  1019   1     0     1     1  0.00938    0.00938    1.000e-005
   1  1020   1     0     1     1  0.00939    0.00939    1.000e-005
   1  1021   1     0     1     1  0.00940    0.00940    1.000e-005
   1  1022   1     0     1     1  0.00941    0.00941    1.000e-005
   1  1023   1     0     1     1  0.00942    0.00942    1.000e-005
   1  1024   1     0     1     1  0.00943    0.00943    1.000e-005
   1  1025   1     0     1     1  0.00944    0.00944    1.000e-005
   1  1026   1     0     1     1  0.00945    0.00945    1.000e-005
   1  1027   1     0     1     1  0.00946    0.00946    1.000e-005
   1  1028   1     0     1     1  0.00947    0.00947    1.000e-005
   1  1029   1     0     1     1  0.00948    0.00948    1.000e-005
   1  1030   1     0     1     1  0.00949    0.00949    1.000e-005
   1  1031   1     0     1     1  0.00950    0.00950    1.000e-005
   1  1032   1     0     1     1  0.00951    0.00951    1.000e-005
   1  1033   1     0     1     1  0.00952    0.00952    1.000e-005
   1  1034   1     0     1     1  0.00953    0.00953    1.000e-005
   1  1035   1     0     1     1  0.00954    0.00954    1.000e-005
   1  1036   1     0     1     1  0.00955    0.00955    1.000e-005
   1  1037   1     0     1     1  0.00956    0.00956    1.000e-005
   1  1038   1     0     1     1  0.00957    0.00957    1.000e-005
   1  1039   1     0     1     1  0.00958    0.00958    1.000e-005
   1  1040   1     0     1     1  0.00959    0.00959    1.000e-005
   1  1041   1     0     1     1  0.00960    0.00960    1.000e-005
   1  1042   1     0     1     1  0.00961    0.00961    1.000e-005
   1  1043   1     0     1     1  0.00962    0.00962    1.000e-005
   1  1044   1     0     1     1  0.00963    0.00963    1.000e-005
   1  1045   1     0     1     1  0.00964    0.00964    1.000e-005
   1  1046   1     0     1     1  0.00965    0.00965    1.000e-005
   1  1047   1     0     2     2  0.00966    0.00966    1.000e-005
   1  1048   1     0     1     1  0.00967    0.00967    1.000e-005
   1  1049   1     0     2     2  0.00968    0.00968    1.000e-005
   1  1050   1     0     1     1  0.00969    0.00969    1.000e-005
   1  1051   1     0     1     1  0.00970    0.00970    1.000e-005
   1  1052   1     0     2     2  0.00971    0.00971    1.000e-005
   1  1053   1     0     2     2  0.00972    0.00972    1.000e-005
   1  1054   1     0     1     1  0.00973    0.00973    1.000e-005
   1  1055   1     0     1     1  0.00974    0.00974    1.000e-005
   1  1056   1     0     1     1  0.00975    0.00975    1.000e-005
   1  1057   1     0     2     2  0.00976    0.00976    1.000e-005
   1  1058   1     0     2     2  0.00977    0.00977    1.000e-005
   1  1059   1     0     1     1  0.00978    0.00978    1.000e-005
   1  1060   1     0     1     1  0.00979    0.00979    1.000e-005
   1  1061   1     0     1     1  0.00980    0.00980    1.000e-005
   1  1062   1     0     2     2  0.00981    0.00981    1.000e-005
   1  1063   1     0     1     1  0.00982    0.00982    1.000e-005
   1  1064   1     0     2     2  0.00983    0.00983    1.000e-005
   1  1065   1     0     1     1  0.00984    0.00984    1.000e-005
   1  1066   1     0     1     1  0.00985    0.00985    1.000e-005
   1  1067   1     0     2     2  0.00986    0.00986    1.000e-005
   1  1068   1     0     1     1  0.00987    0.00987    1.000e-005
   1  1069   1     0     1     1  0.00988    0.00988    1.000e-005
   1  1070   1     0     2     2  0.00989    0.00989    1.000e-005
   1  1071   1     0     1     1  0.00990    0.00990    1.000e-005
   1  1072   1     0     1     1  0.00991    0.00991    1.000e-005
   1  1073   1     0     2     2  0.00992    0.00992    1.000e-005
   1  1074   1     0     2     2  0.00993    0.00993    1.000e-005
   1  1075   1     0     1     1  0.00994    0.00994    1.000e-005
   1  1076   1     0     1     1  0.00995    0.00995    1.000e-005
   1  1077   1     0     1     1  0.00996    0.00996    1.000e-005
   1  1078   1     0     1     1  0.00997    0.00997    1.000e-005
   1  1079   1     0     2     2  0.00998    0.00998    1.000e-005
   1  1080   1     0     2     2  0.00999    0.00999    1.000e-005
   1  1081   1     0     1     1  0.0100     0.0100     1.000e-005
   1  1082   1     0     1     1  0.0100     0.0100     1.000e-005
   1  1083   1     0     1     1  0.0100     0.0100     1.000e-005
   1  1084   1     0     2     2  0.0100     0.0100     1.000e-005
   1  1085   1     0     2     2  0.0100     0.0100     1.000e-005
   1  1086   1     0     1     1  0.0101     0.0101     1.000e-005
   1  1087   1     0     1     1  0.0101     0.0101     1.000e-005
   1  1088   1     0     1     1  0.0101     0.0101     1.000e-005
   1  1089   1     0     2     2  0.0101     0.0101     1.000e-005
   1  1090   1     0     1     1  0.0101     0.0101     1.000e-005
   1  1091   1     0     1     1  0.0101     0.0101     1.000e-005
   1  1092   1     0     2     2  0.0101     0.0101     1.000e-005
   1  1093   1     0     1     1  0.0101     0.0101     1.000e-005
   1  1094   1     0     1     1  0.0101     0.0101     1.000e-005
   1  1095   1     0     2     2  0.0101     0.0101     1.000e-005
   1  1096   1     0     2     2  0.0102     0.0102     1.000e-005
   1  1097   1     0     1     1  0.0102     0.0102     1.000e-005
   1  1098   1     0     1     1  0.0102     0.0102     1.000e-005
   1  1099   1     0     1     1  0.0102     0.0102     1.000e-005
   1  1100   1     0     2     2  0.0102     0.0102     1.000e-005
   1  1101   1     0     1     1  0.0102     0.0102     1.000e-005
   1  1102   1     0     1     1  0.0102     0.0102     1.000e-005
   1  1103   1     0     2     2  0.0102     0.0102     1.000e-005
   1  1104   1     0     2     2  0.0102     0.0102     1.000e-005
   1  1105   1     0     1     1  0.0102     0.0102     1.000e-005
   1  1106   1     0     1     1  0.0103     0.0103     1.000e-005
   1  1107   1     0     1     1  0.0103     0.0103     1.000e-005
   1  1108   1     0     2     2  0.0103     0.0103     1.000e-005
   1  1109   1     0     1     1  0.0103     0.0103     1.000e-005
   1  1110   1     0     1     1  0.0103     0.0103     1.000e-005
   1  1111   1     0     2     2  0.0103     0.0103     1.000e-005
   1  1112   1     0     2     2  0.0103     0.0103     1.000e-005
   1  1113   1     0     1     1  0.0103     0.0103     1.000e-005
   1  1114   1     0     1     1  0.0103     0.0103     1.000e-005
   1  1115   1     0     1     1  0.0103     0.0103     1.000e-005
   1  1116   1     0     2     2  0.0104     0.0104     1.000e-005
   1  1117   1     0     1     1  0.0104     0.0104     1.000e-005
   1  1118   1     0     1     1  0.0104     0.0104     1.000e-005
   1  1119   1     0     2     2  0.0104     0.0104     1.000e-005
   1  1120   1     0     2     2  0.0104     0.0104     1.000e-005
   1  1121   1     0     1     1  0.0104     0.0104     1.000e-005
   1  1122   1     0     1     1  0.0104     0.0104     1.000e-005
   1  1123   1     0     1     1  0.0104     0.0104     1.000e-005
   1  1124   1     0     2     2  0.0104     0.0104     1.000e-005
   1  1125   1     0     1     1  0.0104     0.0104     1.000e-005
   1  1126   1     0     1     1  0.0105     0.0105     1.000e-005
   1  1127   1     0     2     2  0.0105     0.0105     1.000e-005
   1  1128   1     0     2     2  0.0105     0.0105     1.000e-005
   1  1129   1     0     1     1  0.0105     0.0105     1.000e-005
   1  1130   1     0     1     1  0.0105     0.0105     1.000e-005
   1  1131   1     0     1     1  0.0105     0.0105     1.000e-005
   1  1132   1     0     2     2  0.0105     0.0105     1.000e-005
   1  1133   1     0     1     1  0.0105     0.0105     1.000e-005
   1  1134   1     0     1     1  0.0105     0.0105     1.000e-005
   1  1135   1     0     2     2  0.0105     0.0105     1.000e-005
   1  1136   1     0     2     2  0.0106     0.0106     1.000e-005
   1  1137   1     0     1     1  0.0106     0.0106     1.000e-005
   1  1138   1     0     1     1  0.0106     0.0106     1.000e-005
   1  1139   1     0     1     1  0.0106     0.0106     1.000e-005
   1  1140   1     0     1     1  0.0106     0.0106     1.000e-005
   1  1141   1     0     2     2  0.0106     0.0106     1.000e-005
   1  1142   1     0     2     2  0.0106     0.0106     1.000e-005
   1  1143   1     0     1     1  0.0106     0.0106     1.000e-005
   1  1144   1     0     1     1  0.0106     0.0106     1.000e-005
   1  1145   1     0     1     1  0.0106     0.0106     1.000e-005
   1  1146   1     0     2     2  0.0107     0.0107     1.000e-005
   1  1147   1     0     1     1  0.0107     0.0107     1.000e-005
   1  1148   1     0     1     1  0.0107     0.0107     1.000e-005
   1  1149   1     0     2     2  0.0107     0.0107     1.000e-005
   1  1150   1     0     2     2  0.0107     0.0107     1.000e-005
   1  1151   1     0     1     1  0.0107     0.0107     1.000e-005
   1  1152   1     0     1     1  0.0107     0.0107     1.000e-005
   1  1153   1     0     1     1  0.0107     0.0107     1.000e-005
   1  1154   1     0     2     2  0.0107     0.0107     1.000e-005
   1  1155   1     0     1     1  0.0107     0.0107     1.000e-005
   1  1156   1     0     1     1  0.0108     0.0108     1.000e-005
   1  1157   1     0     2     2  0.0108     0.0108     1.000e-005
   1  1158   1     0     2     2  0.0108     0.0108     1.000e-005
   1  1159   1     0     1     1  0.0108     0.0108     1.000e-005
   1  1160   1     0     1     1  0.0108     0.0108     1.000e-005
   1  1161   1     0     1     1  0.0108     0.0108     1.000e-005
   1  1162   1     0     2     2  0.0108     0.0108     1.000e-005
   1  1163   1     0     1     1  0.0108     0.0108     1.000e-005
   1  1164   1     0     1     1  0.0108     0.0108     1.000e-005
   1  1165   1     0     2     2  0.0108     0.0108     1.000e-005
   1  1166   1     0     2     2  0.0109     0.0109     1.000e-005
   1  1167   1     0     1     1  0.0109     0.0109     1.000e-005
   1  1168   1     0     1     1  0.0109     0.0109     1.000e-005
   1  1169   1     0     1     1  0.0109     0.0109     1.000e-005
   1  1170   1     0     2     2  0.0109     0.0109     1.000e-005
   1  1171   1     0     1     1  0.0109     0.0109     1.000e-005
[...]
   1  1278   1     0     1     1  0.0120     0.0120     1.000e-005
   1  1279   1     0     1     1  0.0120     0.0120     1.000e-005
   1  1280   1     0     1     1  0.0120     0.0120     1.000e-005
   1  1281   1     0     1     1  0.0120     0.0120     1.000e-005
   1  1282   1     0     2     2  0.0120     0.0120     1.000e-005
   1  1283   1     0     2     2  0.0120     0.0120     1.000e-005
   1  1284   1     0     1     1  0.0120     0.0120     1.000e-005
   1  1285   1     0     1     1  0.0120     0.0120     1.000e-005
   1  1286   1     0     1     1  0.0121     0.0121     1.000e-005
   1  1287   1     0     2     2  0.0121     0.0121     1.000e-005
   1  1288   1     0     2     2  0.0121     0.0121     1.000e-005
   1  1289   1     0     1     1  0.0121     0.0121     1.000e-005
   1  1290   1     0     1     1  0.0121     0.0121     1.000e-005
   1  1291   1     0     1     1  0.0121     0.0121     1.000e-005
   1  1292   1     0     1     1  0.0121     0.0121     1.000e-005
   1  1293   1     0     2     2  0.0121     0.0121     1.000e-005
   1  1294   1     0     2     2  0.0121     0.0121     1.000e-005
   1  1295   1     0     1     1  0.0121     0.0121     1.000e-005
   1  1296   1     0     1     1  0.0122     0.0122     1.000e-005
   1  1297   1     0     2     2  0.0122     0.0122     1.000e-005
   1  1298   1     0     1     1  0.0122     0.0122     1.000e-005
   1  1299   1     0     1     1  0.0122     0.0122     1.000e-005
   1  1300   1     0     2     2  0.0122     0.0122     1.000e-005
   1  1301   1     0     1     1  0.0122     0.0122     1.000e-005
   1  1302   1     0     1     1  0.0122     0.0122     1.000e-005
   1  1303   1     0     2     2  0.0122     0.0122     1.000e-005
   1  1304   1     0     2     2  0.0122     0.0122     1.000e-005
   1  1305   1     0     1     1  0.0122     0.0122     1.000e-005
   1  1306   1     0     1     1  0.0123     0.0123     1.000e-005
   1  1307   1     0     1     1  0.0123     0.0123     1.000e-005
   1  1308   1     0     1     1  0.0123     0.0123     1.000e-005
   1  1309   1     0     2     2  0.0123     0.0123     1.000e-005
   1  1310   1     0     2     2  0.0123     0.0123     1.000e-005
   1  1311   1     0     1     1  0.0123     0.0123     1.000e-005
   1  1312   1     0     1     1  0.0123     0.0123     1.000e-005
   1  1313   1     0     1     1  0.0123     0.0123     1.000e-005
   1  1314   1     0     2     2  0.0123     0.0123     1.000e-005
   1  1315   1     0     2     2  0.0123     0.0123     1.000e-005
   1  1316   1     0     1     1  0.0124     0.0124     1.000e-005
   1  1317   1     0     1     1  0.0124     0.0124     1.000e-005
   1  1318   1     0     1     1  0.0124     0.0124     1.000e-005
   1  1319   1     0     1     1  0.0124     0.0124     1.000e-005
   1  1320   1     0     2     2  0.0124     0.0124     1.000e-005
   1  1321   1     0     2     2  0.0124     0.0124     1.000e-005
   1  1322   1     0     1     1  0.0124     0.0124     1.000e-005
   1  1323   1     0     1     1  0.0124     0.0124     1.000e-005
   1  1324   1     0     1     1  0.0124     0.0124     1.000e-005
   1  1325   1     0     2     2  0.0124     0.0124     1.000e-005
   1  1326   1     0     2     2  0.0125     0.0125     1.000e-005
   1  1327   1     0     1     1  0.0125     0.0125     1.000e-005
   1  1328   1     0     1     1  0.0125     0.0125     1.000e-005
   1  1329   1     0     1     1  0.0125     0.0125     1.000e-005
   1  1330   1     0     1     1  0.0125     0.0125     1.000e-005
   1  1331   1     0     2     2  0.0125     0.0125     1.000e-005
   1  1332   1     0     2     2  0.0125     0.0125     1.000e-005
   1  1333   1     0     1     1  0.0125     0.0125     1.000e-005
   1  1334   1     0     1     1  0.0125     0.0125     1.000e-005
   1  1335   1     0     1     1  0.0125     0.0125     1.000e-005
   1  1336   1     0     2     2  0.0126     0.0126     1.000e-005
   1  1337   1     0     2     2  0.0126     0.0126     1.000e-005
   1  1338   1     0     1     1  0.0126     0.0126     1.000e-005
   1  1339   1     0     1     1  0.0126     0.0126     1.000e-005
   1  1340   1     0     2     2  0.0126     0.0126     1.000e-005
   1  1341   1     0     1     1  0.0126     0.0126     1.000e-005
   1  1342   1     0     1     1  0.0126     0.0126     1.000e-005
   1  1343   1     0     1     1  0.0126     0.0126     1.000e-005
   1  1344   1     0     1     1  0.0126     0.0126     1.000e-005
   1  1345   1     0     2     2  0.0126     0.0126     1.000e-005
   1  1346   1     0     2     2  0.0127     0.0127     1.000e-005
   1  1347   1     0     1     1  0.0127     0.0127     1.000e-005
   1  1348   1     0     1     1  0.0127     0.0127     1.000e-005
   1  1349   1     0     1     1  0.0127     0.0127     1.000e-005
   1  1350   1     0     2     2  0.0127     0.0127     1.000e-005
   1  1351   1     0     2     2  0.0127     0.0127     1.000e-005
   1  1352   1     0     1     1  0.0127     0.0127     1.000e-005
   1  1353   1     0     1     1  0.0127     0.0127     1.000e-005
   1  1354   1     0     1     1  0.0127     0.0127     1.000e-005
   1  1355   1     0     2     2  0.0127     0.0127     1.000e-005
   1  1356   1     0     1     1  0.0128     0.0128     1.000e-005
   1  1357   1     0     1     1  0.0128     0.0128     1.000e-005
   1  1358   1     0     2     2  0.0128     0.0128     1.000e-005
   1  1359   1     0     2     2  0.0128     0.0128     1.000e-005
   1  1360   1     0     1     1  0.0128     0.0128     1.000e-005
   1  1361   1     0     1     1  0.0128     0.0128     1.000e-005
   1  1362   1     0     1     1  0.0128     0.0128     1.000e-005
   1  1363   1     0     2     2  0.0128     0.0128     1.000e-005
   1  1364   1     0     1     1  0.0128     0.0128     1.000e-005
   1  1365   1     0     1     1  0.0128     0.0128     1.000e-005
   1  1366   1     0     2     2  0.0129     0.0129     1.000e-005
   1  1367   1     0     2     2  0.0129     0.0129     1.000e-005
   1  1368   1     0     1     1  0.0129     0.0129     1.000e-005
   1  1369   1     0     1     1  0.0129     0.0129     1.000e-005
   1  1370   1     0     1     1  0.0129     0.0129     1.000e-005
   1  1371   1     0     2     2  0.0129     0.0129     1.000e-005
   1  1372   1     0     1     1  0.0129     0.0129     1.000e-005
   1  1373   1     0     1     1  0.0129     0.0129     1.000e-005
   1  1374   1     0     2     2  0.0129     0.0129     1.000e-005
   1  1375   1     0     2     2  0.0129     0.0129     1.000e-005
   1  1376   1     0     1     1  0.0130     0.0130     1.000e-005
   1  1377   1     0     1     1  0.0130     0.0130     1.000e-005
   1  1378   1     0     1     1  0.0130     0.0130     1.000e-005
   1  1379   1     0     1     1  0.0130     0.0130     1.000e-005
   1  1380   1     0     2     2  0.0130     0.0130     1.000e-005
   1  1381   1     0     2     2  0.0130     0.0130     1.000e-005
   1  1382   1     0     1     1  0.0130     0.0130     1.000e-005
   1  1383   1     0     1     1  0.0130     0.0130     1.000e-005
   1  1384   1     0     1     1  0.0130     0.0130     1.000e-005
   1  1385   1     0     2     2  0.0130     0.0130     1.000e-005
   1  1386   1     0     2     2  0.0131     0.0131     1.000e-005
   1  1387   1     0     1     1  0.0131     0.0131     1.000e-005
   1  1388   1     0     1     1  0.0131     0.0131     1.000e-005
   1  1389   1     0     1     1  0.0131     0.0131     1.000e-005
   1  1390   1     0     1     1  0.0131     0.0131     1.000e-005
   1  1391   1     0     2     2  0.0131     0.0131     1.000e-005
   1  1392   1     0     2     2  0.0131     0.0131     1.000e-005
   1  1393   1     0     1     1  0.0131     0.0131     1.000e-005
   1  1394   1     0     1     1  0.0131     0.0131     1.000e-005
   1  1395   1     0     1     1  0.0131     0.0131     1.000e-005
   1  1396   1     0     2     2  0.0132     0.0132     1.000e-005
   1  1397   1     0     2     2  0.0132     0.0132     1.000e-005
   1  1398   1     0     1     1  0.0132     0.0132     1.000e-005
   1  1399   1     0     1     1  0.0132     0.0132     1.000e-005
   1  1400   1     0     1     1  0.0132     0.0132     1.000e-005
   1  1401   1     0     2     2  0.0132     0.0132     1.000e-005
   1  1402   1     0     1     1  0.0132     0.0132     1.000e-005
   1  1403   1     0     1     1  0.0132     0.0132     1.000e-005
   1  1404   1     0     2     2  0.0132     0.0132     1.000e-005
   1  1405   1     0     2     2  0.0132     0.0132     1.000e-005
   1  1406   1     0     1     1  0.0133     0.0133     1.000e-005
   1  1407   1     0     1     1  0.0133     0.0133     1.000e-005
   1  1408   1     0     1     1  0.0133     0.0133     1.000e-005
   1  1409   1     0     1     1  0.0133     0.0133     1.000e-005
   1  1410   1     0     2     2  0.0133     0.0133     1.000e-005
   1  1411   1     0     2     2  0.0133     0.0133     1.000e-005
   1  1412   1     0     1     1  0.0133     0.0133     1.000e-005
   1  1413   1     0     1     1  0.0133     0.0133     1.000e-005
   1  1414   1     0     1     1  0.0133     0.0133     1.000e-005
   1  1415   1     0     2     2  0.0133     0.0133     1.000e-005
   1  1416   1     0     2     2  0.0134     0.0134     1.000e-005
   1  1417   1     0     1     1  0.0134     0.0134     1.000e-005
   1  1418   1     0     1     1  0.0134     0.0134     1.000e-005
   1  1419   1     0     1     1  0.0134     0.0134     1.000e-005
   1  1420   1     0     1     1  0.0134     0.0134     1.000e-005
   1  1421   1     0     2     2  0.0134     0.0134     1.000e-005
   1  1422   1     0     2     2  0.0134     0.0134     1.000e-005
   1  1423   1     0     1     1  0.0134     0.0134     1.000e-005
   1  1424   1     0     1     1  0.0134     0.0134     1.000e-005
   1  1425   1     0     2     2  0.0134     0.0134     1.000e-005
   1  1426   1     0     1     1  0.0135     0.0135     1.000e-005
   1  1427   1     0     1     1  0.0135     0.0135     1.000e-005
   1  1428   1     0     1     1  0.0135     0.0135     1.000e-005
   1  1429   1     0     2     2  0.0135     0.0135     1.000e-005
   1  1430   1     0     2     2  0.0135     0.0135     1.000e-005
   1  1431   1     0     1     1  0.0135     0.0135     1.000e-005
   1  1432   1     0     1     1  0.0135     0.0135     1.000e-005
   1  1433   1     0     1     1  0.0135     0.0135     1.000e-005
   1  1434   1     0     2     2  0.0135     0.0135     1.000e-005
   1  1435   1     0     2     2  0.0135     0.0135     1.000e-005
   1  1436   1     0     1     1  0.0136     0.0136     1.000e-005
   1  1437   1     0     1     1  0.0136     0.0136     1.000e-005
   1  1438   1     0     1     1  0.0136     0.0136     1.000e-005
   1  1439   1     0     2     2  0.0136     0.0136     1.000e-005
   1  1440   1     0     1     1  0.0136     0.0136     1.000e-005
   1  1441   1     0     1     1  0.0136     0.0136     1.000e-005
   1  1442   1     0     2     2  0.0136     0.0136     1.000e-005
   1  1443   1     0     2     2  0.0136     0.0136     1.000e-005
   1  1444   1     0     1     1  0.0136     0.0136     1.000e-005
   1  1445   1     0     1     1  0.0136     0.0136     1.000e-005
   1  1446   1     0     1     1  0.0137     0.0137     1.000e-005
   1  1447   1     0     2     2  0.0137     0.0137     1.000e-005
   1  1448   1     0     1     1  0.0137     0.0137     1.000e-005
   1  1449   1     0     1     1  0.0137     0.0137     1.000e-005
   1  1450   1     0     2     2  0.0137     0.0137     1.000e-005
   1  1451   1     0     2     2  0.0137     0.0137     1.000e-005
   1  1452   1     0     1     1  0.0137     0.0137     1.000e-005
   1  1453   1     0     1     1  0.0137     0.0137     1.000e-005
   1  1454   1     0     1     1  0.0137     0.0137     1.000e-005
   1  1455   1     0     1     1  0.0137     0.0137     1.000e-005
   1  1456   1     0     2     2  0.0138     0.0138     1.000e-005
   1  1457   1     0     2     2  0.0138     0.0138     1.000e-005
   1  1458   1     0     1     1  0.0138     0.0138     1.000e-005
   1  1459   1     0     1     1  0.0138     0.0138     1.000e-005
   1  1460   1     0     1     1  0.0138     0.0138     1.000e-005
   1  1461   1     0     2     2  0.0138     0.0138     1.000e-005
   1  1462   1     0     2     2  0.0138     0.0138     1.000e-005
   1  1463   1     0     1     1  0.0138     0.0138     1.000e-005
   1  1464   1     0     1     1  0.0138     0.0138     1.000e-005
   1  1465   1     0     1     1  0.0138     0.0138     1.000e-005
   1  1466   1     0     2     2  0.0139     0.0139     1.000e-005
   1  1467   1     0     1     1  0.0139     0.0139     1.000e-005
   1  1468   1     0     1     1  0.0139     0.0139     1.000e-005
   1  1469   1     0     2     2  0.0139     0.0139     1.000e-005
   1  1470   1     0     2     2  0.0139     0.0139     1.000e-005
   1  1471   1     0     1     1  0.0139     0.0139     1.000e-005
   1  1472   1     0     1     1  0.0139     0.0139     1.000e-005
   1  1473   1     0     1     1  0.0139     0.0139     1.000e-005
   1  1474   1     0     1     1  0.0139     0.0139     1.000e-005
   1  1475   1     0     2     2  0.0139     0.0139     1.000e-005
   1  1476   1     0     2     2  0.0140     0.0140     1.000e-005
   1  1477   1     0     1     1  0.0140     0.0140     1.000e-005
   1  1478   1     0     1     1  0.0140     0.0140     1.000e-005
   1  1479   1     0     1     1  0.0140     0.0140     1.000e-005
   1  1480   1     0     2     2  0.0140     0.0140     1.000e-005
   1  1481   1     0     2     2  0.0140     0.0140     1.000e-005
   1  1482   1     0     1     1  0.0140     0.0140     1.000e-005
   1  1483   1     0     1     1  0.0140     0.0140     1.000e-005
   1  1484   1     0     1     1  0.0140     0.0140     1.000e-005
   1  1485   1     0     2     2  0.0140     0.0140     1.000e-005
   1  1486   1     0     1     1  0.0141     0.0141     1.000e-005
   1  1487   1     0     1     1  0.0141     0.0141     1.000e-005
   1  1488   1     0     2     2  0.0141     0.0141     1.000e-005
   1  1489   1     0     2     2  0.0141     0.0141     1.000e-005
   1  1490   1     0     1     1  0.0141     0.0141     1.000e-005
   1  1491   1     0     1     1  0.0141     0.0141     1.000e-005
   1  1492   1     0     1     1  0.0141     0.0141     1.000e-005
   1  1493   1     0     1     1  0.0141     0.0141     1.000e-005
   1  1494   1     0     2     2  0.0141     0.0141     1.000e-005
   1  1495   1     0     2     2  0.0141     0.0141     1.000e-005
   1  1496   1     0     1     1  0.0142     0.0142     1.000e-005
   1  1497   1     0     1     1  0.0142     0.0142     1.000e-005
   1  1498   1     0     1     1  0.0142     0.0142     1.000e-005
   1  1499   1     0     2     2  0.0142     0.0142     1.000e-005
   1  1500   1     0     2     2  0.0142     0.0142     1.000e-005
   1  1501   1     0     1     1  0.0142     0.0142     1.000e-005
   1  1502   1     0     1     1  0.0142     0.0142     1.000e-005
   1  1503   1     0     1     1  0.0142     0.0142     1.000e-005
   1  1504   1     0     2     2  0.0142     0.0142     1.000e-005
   1  1505   1     0     1     1  0.0142     0.0142     1.000e-005
   1  1506   1     0     1     1  0.0143     0.0143     1.000e-005
   1  1507   1     0     2     2  0.0143     0.0143     1.000e-005
   1  1508   1     0     2     2  0.0143     0.0143     1.000e-005
   1  1509   1     0     1     1  0.0143     0.0143     1.000e-005
   1  1510   1     0     1     1  0.0143     0.0143     1.000e-005
   1  1511   1     0     1     1  0.0143     0.0143     1.000e-005
   1  1512   1     0     2     2  0.0143     0.0143     1.000e-005
   1  1513   1     0     1     1  0.0143     0.0143     1.000e-005
   1  1514   1     0     1     1  0.0143     0.0143     1.000e-005
   1  1515   1     0     2     2  0.0143     0.0143     1.000e-005
   1  1516   1     0     2     2  0.0144     0.0144     1.000e-005
   1  1517   1     0     1     1  0.0144     0.0144     1.000e-005
   1  1518   1     0     1     1  0.0144     0.0144     1.000e-005
   1  1519   1     0     1     1  0.0144     0.0144     1.000e-005
   1  1520   1     0     1     1  0.0144     0.0144     1.000e-005
   1  1521   1     0     2     2  0.0144     0.0144     1.000e-005
   1  1522   1     0     2     2  0.0144     0.0144     1.000e-005
   1  1523   1     0     1     1  0.0144     0.0144     1.000e-005
   1  1524   1     0     1     1  0.0144     0.0144     1.000e-005
   1  1525   1     0     1     1  0.0144     0.0144     1.000e-005
   1  1526   1     0     2     2  0.0145     0.0145     1.000e-005
   1  1527   1     0     1     1  0.0145     0.0145     1.000e-005
   1  1528   1     0     1     1  0.0145     0.0145     1.000e-005
   1  1529   1     0     2     2  0.0145     0.0145     1.000e-005
   1  1530   1     0     2     2  0.0145     0.0145     1.000e-005
   1  1531   1     0     1     1  0.0145     0.0145     1.000e-005
   1  1532   1     0     1     1  0.0145     0.0145     1.000e-005
   1  1533   1     0     1     1  0.0145     0.0145     1.000e-005
   1  1534   1     0     2     2  0.0145     0.0145     1.000e-005
   1  1535   1     0     1     1  0.0145     0.0145     1.000e-005
   1  1536   1     0     1     1  0.0146     0.0146     1.000e-005
   1  1537   1     0     2     2  0.0146     0.0146     1.000e-005
   1  1538   1     0     2     2  0.0146     0.0146     1.000e-005
   1  1539   1     0     1     1  0.0146     0.0146     1.000e-005
   1  1540   1     0     1     1  0.0146     0.0146     1.000e-005
   1  1541   1     0     1     1  0.0146     0.0146     1.000e-005
   1  1542   1     0     2     2  0.0146     0.0146     1.000e-005
   1  1543   1     0     1     1  0.0146     0.0146     1.000e-005
   1  1544   1     0     1     1  0.0146     0.0146     1.000e-005
   1  1545   1     0     2     2  0.0146     0.0146     1.000e-005
   1  1546   1     0     2     2  0.0147     0.0147     1.000e-005
   1  1547   1     0     1     1  0.0147     0.0147     1.000e-005
   1  1548   1     0     1     1  0.0147     0.0147     1.000e-005
   1  1549   1     0     1     1  0.0147     0.0147     1.000e-005
   1  1550   1     0     1     1  0.0147     0.0147     1.000e-005
   1  1551   1     0     2     2  0.0147     0.0147     1.000e-005
   1  1552   1     0     2     2  0.0147     0.0147     1.000e-005
   1  1553   1     0     1     1  0.0147     0.0147     1.000e-005
   1  1554   1     0     1     1  0.0147     0.0147     1.000e-005
   1  1555   1     0     1     1  0.0147     0.0147     1.000e-005
   1  1556   1     0     2     2  0.0148     0.0148     1.000e-005
   1  1557   1     0     2     2  0.0148     0.0148     1.000e-005
   1  1558   1     0     1     1  0.0148     0.0148     1.000e-005
   1  1559   1     0     1     1  0.0148     0.0148     1.000e-005
   1  1560   1     0     1     1  0.0148     0.0148     1.000e-005
   1  1561   1     0     2     2  0.0148     0.0148     1.000e-005
   1  1562   1     0     1     1  0.0148     0.0148     1.000e-005
   1  1563   1     0     1     1  0.0148     0.0148     1.000e-005
   1  1564   1     0     2     2  0.0148     0.0148     1.000e-005
   1  1565   1     0     2     2  0.0148     0.0148     1.000e-005
   1  1566   1     0     1     1  0.0149     0.0149     1.000e-005
   1  1567   1     0     1     1  0.0149     0.0149     1.000e-005
   1  1568   1     0     1     1  0.0149     0.0149     1.000e-005
   1  1569   1     0     1     1  0.0149     0.0149     1.000e-005
   1  1570   1     0     2     2  0.0149     0.0149     1.000e-005
                          
 THE ANALYSIS HAS NOT BEEN COMPLETED
