 Abaqus/Standard 6.13-1                  DATE 09-Feb-2016 TIME 20:45:44
 SUMMARY OF JOB INFORMATION:
 STEP  INC ATT SEVERE EQUIL TOTAL  TOTAL      STEP       INC OF       DOF    IF
               DISCON ITERS ITERS  TIME/    TIME/LPF    TIME/LPF    MONITOR RIKS
               ITERS               FREQ
   1     1   1     0     1     1  1.00e-013  1.00e-013  1.000e-013
   1     2   1     0     1     1  2.00e-013  2.00e-013  1.000e-013
   1     3   1     0     1     1  3.00e-013  3.00e-013  1.000e-013
   1     4   1     0     1     1  4.25e-013  4.25e-013  1.250e-013
   1     5   1     0     1     1  5.81e-013  5.81e-013  1.562e-013
   1     6   1     0     1     1  7.77e-013  7.77e-013  1.953e-013
   1     7   1     0     1     1  1.02e-012  1.02e-012  2.441e-013
   1     8   1     0     1     1  1.33e-012  1.33e-012  3.052e-013
   1     9   1     0     1     1  1.71e-012  1.71e-012  3.815e-013
   1    10   1     0     1     1  2.18e-012  2.18e-012  4.768e-013
   1    11   1     0     1     1  2.78e-012  2.78e-012  5.960e-013
   1    12   1     0     1     1  3.53e-012  3.53e-012  7.451e-013
   1    13   1     0     1     1  4.46e-012  4.46e-012  9.313e-013
   1    14   1     0     1     1  5.62e-012  5.62e-012  1.164e-012
   1    15   1     0     1     1  7.08e-012  7.08e-012  1.455e-012
   1    16   1     0     1     1  8.89e-012  8.89e-012  1.819e-012
   1    17   1     0     1     1  1.12e-011  1.12e-011  2.274e-012
   1    18   1     0     1     1  1.40e-011  1.40e-011  2.842e-012
   1    19   1     0     1     1  1.76e-011  1.76e-011  3.553e-012
   1    20   1     0     1     1  2.20e-011  2.20e-011  4.441e-012
   1    21   1     0     1     1  2.76e-011  2.76e-011  5.551e-012
   1    22   1     0     1     1  3.45e-011  3.45e-011  6.939e-012
   1    23   1     0     1     1  4.32e-011  4.32e-011  8.674e-012
   1    24   1     0     1     1  5.40e-011  5.40e-011  1.084e-011
   1    25   1     0     1     1  6.76e-011  6.76e-011  1.355e-011
   1    26   1     0     1     1  8.45e-011  8.45e-011  1.694e-011
   1    27   1     0     1     1  1.06e-010  1.06e-010  2.118e-011
   1    28   1     0     1     1  1.32e-010  1.32e-010  2.647e-011
   1    29   1     0     1     1  1.65e-010  1.65e-010  3.309e-011
   1    30   1     0     1     1  2.07e-010  2.07e-010  4.136e-011
   1    31   1     0     1     1  2.58e-010  2.58e-010  5.170e-011
   1    32   1     0     1     1  3.23e-010  3.23e-010  6.462e-011
   1    33   1     0     1     1  4.04e-010  4.04e-010  8.078e-011
   1    34   1     0     1     1  5.05e-010  5.05e-010  1.010e-010
   1    35   1     0     1     1  6.31e-010  6.31e-010  1.262e-010
   1    36   1     0     1     1  7.89e-010  7.89e-010  1.578e-010
   1    37   1     0     1     1  9.86e-010  9.86e-010  1.972e-010
   1    38   1     0     1     1  1.23e-009  1.23e-009  2.465e-010
   1    39   1     0     1     1  1.54e-009  1.54e-009  3.081e-010
   1    40   1     0     1     1  1.93e-009  1.93e-009  3.852e-010
   1    41   1     0     1     1  2.41e-009  2.41e-009  4.815e-010
   1    42   1     0     1     1  3.01e-009  3.01e-009  6.019e-010
   1    43   1     0     1     1  3.76e-009  3.76e-009  7.523e-010
   1    44   1     0     1     1  4.70e-009  4.70e-009  9.404e-010
   1    45   1     0     1     1  5.88e-009  5.88e-009  1.175e-009
   1    46   1     0     1     1  7.35e-009  7.35e-009  1.469e-009
   1    47   1     0     1     1  9.18e-009  9.18e-009  1.837e-009
   1    48   1     0     1     1  1.15e-008  1.15e-008  2.296e-009
   1    49   1     0     1     1  1.43e-008  1.43e-008  2.870e-009
   1    50   1     0     1     1  1.79e-008  1.79e-008  3.587e-009
   1    51   1     0     1     1  2.24e-008  2.24e-008  4.484e-009
   1    52   1     0     1     1  2.80e-008  2.80e-008  5.605e-009
   1    53   1     0     1     1  3.50e-008  3.50e-008  7.006e-009
   1    54   1     0     1     1  4.38e-008  4.38e-008  8.758e-009
   1    55   1     0     1     1  5.47e-008  5.47e-008  1.095e-008
   1    56   1     0     1     1  6.84e-008  6.84e-008  1.368e-008
   1    57   1     0     1     1  8.55e-008  8.55e-008  1.711e-008
   1    58   1     0     1     1  1.07e-007  1.07e-007  2.138e-008
   1    59   1     0     1     1  1.34e-007  1.34e-007  2.673e-008
   1    60   1     0     1     1  1.67e-007  1.67e-007  3.341e-008
   1    61   1     0     1     1  2.09e-007  2.09e-007  4.176e-008
   1    62   1     0     1     1  2.61e-007  2.61e-007  5.220e-008
   1    63   1     0     1     1  3.26e-007  3.26e-007  6.525e-008
   1    64   1     0     1     1  4.08e-007  4.08e-007  8.157e-008
   1    65   1     0     1     1  5.10e-007  5.10e-007  1.020e-007
   1    66   1     0     1     1  6.37e-007  6.37e-007  1.274e-007
   1    67   1     0     1     1  7.97e-007  7.97e-007  1.593e-007
   1    68   1     0     1     1  9.96e-007  9.96e-007  1.991e-007
   1    69   1     0     1     1  1.24e-006  1.24e-006  2.489e-007
   1    70   1     0     1     1  1.56e-006  1.56e-006  3.112e-007
   1    71   1     0     1     1  1.94e-006  1.94e-006  3.889e-007
   1    72   1     0     1     1  2.43e-006  2.43e-006  4.862e-007
   1    73   1     0     1     1  3.04e-006  3.04e-006  6.077e-007
   1    74   1     0     1     1  3.80e-006  3.80e-006  7.596e-007
   1    75   1     0     2     2  4.75e-006  4.75e-006  9.496e-007
   1    76   1     0     2     2  5.93e-006  5.93e-006  1.187e-006
   1    77   1     0     2     2  7.42e-006  7.42e-006  1.484e-006
   1    78   1     0     2     2  9.27e-006  9.27e-006  1.855e-006
   1    79   1     0     2     2  1.16e-005  1.16e-005  2.318e-006
   1    80   1     0     2     2  1.45e-005  1.45e-005  2.898e-006
   1    81   1     0     2     2  1.81e-005  1.81e-005  3.622e-006
   1    82   1     0     2     2  2.26e-005  2.26e-005  4.528e-006
   1    83   1     0     2     2  2.83e-005  2.83e-005  5.660e-006
   1    84   1     0     2     2  3.54e-005  3.54e-005  7.075e-006
   1    85   1     0     2     2  4.42e-005  4.42e-005  8.843e-006
   1    86   1     0     2     2  5.53e-005  5.53e-005  1.105e-005
   1    87   1     0     2     2  6.91e-005  6.91e-005  1.382e-005
   1    88   1     0     2     2  8.64e-005  8.64e-005  1.727e-005
   1    89   1     0     2     2  0.000108   0.000108   2.159e-005
   1    90   1     0     2     2  0.000135   0.000135   2.699e-005
   1    91   1     0     2     2  0.000169   0.000169   3.374e-005
   1    92   1     0     2     2  0.000202   0.000202   3.374e-005
   1    93   1U    0     2     2  0.000202   0.000202   3.374e-005
   1    93   2     0     2     2  0.000228   0.000228   2.601e-005
   1    94   1     0     2     2  0.000254   0.000254   2.601e-005
   1    95   1     0     2     2  0.000280   0.000280   2.601e-005
   1    96   1     0     2     2  0.000313   0.000313   3.251e-005
   1    97   1U    0     2     2  0.000313   0.000313   4.064e-005
   1    97   2     0     2     2  0.000337   0.000337   2.402e-005
   1    98   1     0     2     2  0.000361   0.000361   2.402e-005
   1    99   1     0     2     2  0.000385   0.000385   2.402e-005
   1   100   1     0     2     2  0.000414   0.000414   2.933e-005
   1   101   1     0     2     2  0.000444   0.000444   2.933e-005
   1   102   1     0     2     2  0.000473   0.000473   2.933e-005
   1   103   1     0     2     2  0.000502   0.000502   2.933e-005
   1   104   1     0     2     2  0.000532   0.000532   2.933e-005
   1   105   1     0     2     2  0.000561   0.000561   2.933e-005
   1   106   1     0     2     2  0.000590   0.000590   2.933e-005
   1   107   1     0     2     2  0.000620   0.000620   2.933e-005
   1   108   1     0     2     2  0.000649   0.000649   2.933e-005
   1   109   1     0     2     2  0.000678   0.000678   2.933e-005
   1   110   1     0     2     2  0.000708   0.000708   2.933e-005
   1   111   1     0     2     2  0.000744   0.000744   3.667e-005
   1   112   1     0     2     2  0.000781   0.000781   3.667e-005
   1   113   1     0     2     2  0.000818   0.000818   3.667e-005
   1   114   1     0     2     2  0.000854   0.000854   3.667e-005
   1   115   1     0     2     2  0.000891   0.000891   3.667e-005
   1   116   1U    0     2     2  0.000891   0.000891   3.667e-005
   1   116   2     0     2     2  0.000922   0.000922   3.113e-005
   1   117   1     0     2     2  0.000953   0.000953   3.113e-005
   1   118   1     0     2     2  0.000984   0.000984   3.113e-005
   1   119   1     0     2     2  0.00102    0.00102    3.113e-005
   1   120   1     0     2     2  0.00105    0.00105    3.891e-005
   1   121   1     0     2     2  0.00110    0.00110    4.864e-005
   1   122   1U    0     2     2  0.00110    0.00110    4.864e-005
   1   122   2     0     2     2  0.00113    0.00113    2.600e-005
   1   123   1     0     2     2  0.00116    0.00116    2.600e-005
   1   124   1U    0     2     2  0.00116    0.00116    2.600e-005
   1   124   2     0     1     1  0.00117    0.00117    1.524e-005
   1   125   1     0     1     1  0.00119    0.00119    1.524e-005
   1   126   1U    0     1     1  0.00119    0.00119    1.524e-005
   1   126   2     0     1     1  0.00120    0.00120    1.169e-005
   1   127   1     0     1     1  0.00121    0.00121    1.169e-005
   1   128   1     0     1     1  0.00122    0.00122    1.169e-005
   1   129   1     0     2     2  0.00123    0.00123    1.367e-005
   1   130   1     0     2     2  0.00125    0.00125    1.367e-005
   1   131   1     0     2     2  0.00126    0.00126    1.367e-005
   1   132   1     0     2     2  0.00128    0.00128    1.367e-005
   1   133   1     0     2     2  0.00129    0.00129    1.367e-005
   1   134   1     0     2     2  0.00130    0.00130    1.367e-005
   1   135   1     0     2     2  0.00132    0.00132    1.629e-005
   1   136   1     0     2     2  0.00134    0.00134    1.629e-005
   1   137   1     0     2     2  0.00135    0.00135    1.846e-005
   1   138   1     0     2     2  0.00137    0.00137    1.846e-005
   1   139   1     0     2     2  0.00139    0.00139    1.846e-005
   1   140   1     0     2     2  0.00141    0.00141    1.846e-005
   1   141   1     0     2     2  0.00143    0.00143    1.846e-005
   1   142   1     0     2     2  0.00145    0.00145    1.846e-005
   1   143   1     0     2     2  0.00147    0.00147    2.307e-005
   1   144   1     0     2     2  0.00150    0.00150    2.884e-005
   1   145   1     0     2     2  0.00153    0.00153    2.884e-005
   1   146   1     0     2     2  0.00156    0.00156    2.884e-005
   1   147   1     0     2     2  0.00158    0.00158    2.884e-005
   1   148   1     0     2     2  0.00162    0.00162    3.605e-005
   1   149   1     0     2     2  0.00166    0.00166    3.605e-005
   1   150   1     0     2     2  0.00169    0.00169    3.605e-005
   1   151   1U    0     2     2  0.00169    0.00169    3.605e-005
   1   151   2     0     1     1  0.00172    0.00172    3.037e-005
   1   152   1     0     2     2  0.00175    0.00175    3.037e-005
   1   153   1U    0     2     2  0.00175    0.00175    3.037e-005
   1   153   2     0     1     1  0.00177    0.00177    1.283e-005
   1   154   1     0     1     1  0.00178    0.00178    1.283e-005
   1   155   1     0     1     1  0.00179    0.00179    1.283e-005
   1   156   1     0     1     1  0.00181    0.00181    1.604e-005
   1   157   1U    0     2     2  0.00181    0.00181    2.005e-005
   1   157   2     0     1     1  0.00182    0.00182    1.633e-005
   1   158   1     0     2     2  0.00184    0.00184    1.633e-005
   1   159   1     0     1     1  0.00186    0.00186    1.633e-005
   1   160   1     0     2     2  0.00187    0.00187    1.633e-005
   1   161   1U    0     2     2  0.00187    0.00187    1.633e-005
   1   161   2     0     1     1  0.00189    0.00189    1.357e-005
   1   162   1     0     1     1  0.00190    0.00190    1.357e-005
   1   163   1     0     1     1  0.00191    0.00191    1.357e-005
   1   164   1     0     2     2  0.00193    0.00193    1.357e-005
   1   165   1     0     2     2  0.00194    0.00194    1.547e-005
   1   166   1     0     2     2  0.00196    0.00196    1.547e-005
   1   167   1     0     2     2  0.00197    0.00197    1.547e-005
   1   168   1     0     2     2  0.00199    0.00199    1.547e-005
   1   169   1     0     2     2  0.00200    0.00200    1.547e-005
   1   170   1     0     2     2  0.00202    0.00202    1.547e-005
   1   171   1     0     2     2  0.00204    0.00204    1.547e-005
   1   172   1     0     2     2  0.00205    0.00205    1.547e-005
   1   173   1     0     2     2  0.00207    0.00207    1.547e-005
   1   174   1     0     2     2  0.00208    0.00208    1.547e-005
   1   175   1     0     2     2  0.00210    0.00210    1.547e-005
   1   176   1     0     2     2  0.00211    0.00211    1.547e-005
   1   177   1     0     2     2  0.00213    0.00213    1.932e-005
   1   178   1     0     2     2  0.00215    0.00215    1.932e-005
   1   179   1     0     2     2  0.00217    0.00217    1.932e-005
   1   180   1     0     2     2  0.00219    0.00219    1.932e-005
   1   181   1     0     2     2  0.00221    0.00221    1.932e-005
   1   182   1     0     2     2  0.00223    0.00223    2.415e-005
   1   183   1     0     2     2  0.00226    0.00226    2.415e-005
   1   184   1     0     2     2  0.00228    0.00228    2.415e-005
   1   185   1     0     2     2  0.00231    0.00231    3.019e-005
   1   186   1     0     2     2  0.00235    0.00235    3.774e-005
   1   187   1     0     2     2  0.00240    0.00240    4.718e-005
   1   188   1     0     2     2  0.00246    0.00246    5.897e-005
   1   189   1     0     2     2  0.00252    0.00252    5.897e-005
   1   190   1U    0     2     2  0.00252    0.00252    7.371e-005
   1   190   2     0     2     2  0.00257    0.00257    5.557e-005
   1   191   1U    0     2     2  0.00257    0.00257    5.557e-005
   1   191   2     0     2     2  0.00260    0.00260    2.699e-005
   1   192   1     0     2     2  0.00262    0.00262    2.699e-005
   1   193   1     0     2     2  0.00265    0.00265    2.699e-005
   1   194   1     0     2     2  0.00268    0.00268    2.699e-005
   1   195   1U    0     1     1  0.00268    0.00268    2.699e-005
   1   195   2     0     1     1  0.00269    0.00269    1.617e-005
   1   196   1     0     1     1  0.00271    0.00271    1.617e-005
   1   197   1     0     1     1  0.00273    0.00273    1.617e-005
   1   198   1     0     2     2  0.00275    0.00275    2.021e-005
   1   199   1     0     2     2  0.00277    0.00277    2.527e-005
   1   200   1     0     2     2  0.00280    0.00280    3.158e-005
   1   201   1     0     2     2  0.00284    0.00284    3.948e-005
   1   202   1     0     2     2  0.00289    0.00289    4.935e-005
   1   203   1     0     2     2  0.00294    0.00294    4.935e-005
   1   204   1     0     2     2  0.00299    0.00299    4.935e-005
   1   205   1U    0     2     2  0.00299    0.00299    6.168e-005
   1   205   2     0     2     2  0.00303    0.00303    3.586e-005
   1   206   1     0     2     2  0.00306    0.00306    3.586e-005
   1   207   1     0     2     2  0.00310    0.00310    3.586e-005
   1   208   1     0     2     2  0.00314    0.00314    4.483e-005
   1   209   1     0     2     2  0.00320    0.00320    5.604e-005
   1   210   1U    0     2     2  0.00320    0.00320    7.005e-005
   1   210   2     0     2     2  0.00324    0.00324    4.431e-005
   1   211   1     0     2     2  0.00329    0.00329    4.431e-005
   1   212   1U    0     2     2  0.00329    0.00329    4.431e-005
   1   212   2     0     2     2  0.00331    0.00331    2.395e-005
   1   213   1     0     2     2  0.00334    0.00334    2.395e-005
   1   214   1U    0     2     2  0.00334    0.00334    2.395e-005
   1   214   2     0     1     1  0.00335    0.00335    1.135e-005
   1   215   1     0     1     1  0.00336    0.00336    1.135e-005
   1   216   1U    0     1     1  0.00336    0.00336    1.135e-005
   1   216   2     0     1     1  0.00337    0.00337    6.608e-006
   1   217   1     0     1     1  0.00337    0.00337    6.608e-006
   1   218   1     0     2     2  0.00338    0.00338    6.608e-006
   1   219   1     0     2     2  0.00339    0.00339    8.259e-006
   1   220   1     0     2     2  0.00340    0.00340    1.032e-005
   1   221   1     0     2     2  0.00341    0.00341    1.291e-005
   1   222   1     0     2     2  0.00343    0.00343    1.501e-005
   1   223   1     0     2     2  0.00344    0.00344    1.501e-005
   1   224   1     0     2     2  0.00346    0.00346    1.501e-005
   1   225   1     0     2     2  0.00347    0.00347    1.876e-005
   1   226   1U    0     2     2  0.00347    0.00347    2.221e-005
   1   226   2     0     2     2  0.00349    0.00349    1.715e-005
   1   227   1     0     2     2  0.00351    0.00351    1.715e-005
   1   228   1     0     2     2  0.00353    0.00353    1.715e-005
   1   229   1     0     2     2  0.00355    0.00355    2.144e-005
   1   230   1U    0     2     2  0.00355    0.00355    2.680e-005
   1   230   2     0     2     2  0.00357    0.00357    2.041e-005
   1   231   1     0     2     2  0.00359    0.00359    2.041e-005
   1   232   1     0     2     2  0.00361    0.00361    2.041e-005
   1   233   1U    0     2     2  0.00361    0.00361    2.041e-005
   1   233   2     0     1     1  0.00362    0.00362    9.014e-006
   1   234   1     0     1     1  0.00363    0.00363    9.014e-006
   1   235   1     0     1     1  0.00364    0.00364    9.014e-006
   1   236   1     0     2     2  0.00365    0.00365    1.127e-005
   1   237   1     0     2     2  0.00366    0.00366    1.127e-005
   1   238   1     0     2     2  0.00367    0.00367    1.127e-005
   1   239   1     0     2     2  0.00368    0.00368    1.127e-005
   1   240   1     0     2     2  0.00369    0.00369    1.127e-005
   1   241   1     0     2     2  0.00370    0.00370    1.127e-005
   1   242   1     0     2     2  0.00372    0.00372    1.408e-005
   1   243   1     0     2     2  0.00373    0.00373    1.408e-005
   1   244   1     0     2     2  0.00375    0.00375    1.408e-005
   1   245   1U    0     2     2  0.00375    0.00375    1.408e-005
   1   245   2     0     2     2  0.00376    0.00376    1.165e-005
   1   246   1     0     2     2  0.00377    0.00377    1.165e-005
   1   247   1     0     2     2  0.00378    0.00378    1.165e-005
   1   248   1     0     2     2  0.00380    0.00380    1.457e-005
   1   249   1     0     2     2  0.00381    0.00381    1.821e-005
   1   250   1     0     2     2  0.00383    0.00383    1.821e-005
   1   251   1     0     2     2  0.00385    0.00385    1.821e-005
   1   252   1     0     2     2  0.00387    0.00387    2.276e-005
   1   253   1     0     2     2  0.00390    0.00390    2.845e-005
   1   254   1     0     2     2  0.00393    0.00393    2.845e-005
   1   255   1     0     2     2  0.00396    0.00396    2.845e-005
   1   256   1     0     2     2  0.00399    0.00399    2.845e-005
   1   257   1U    0     2     2  0.00399    0.00399    3.556e-005
   1   257   2     0     1     1  0.00400    0.00400    1.289e-005
   1   258   1     0     1     1  0.00401    0.00401    1.289e-005
   1   259   1     0     1     1  0.00402    0.00402    1.289e-005
   1   260   1     0     1     1  0.00404    0.00404    1.611e-005
   1   261   1U    0     2     2  0.00404    0.00404    2.014e-005
   1   261   2     0     1     1  0.00405    0.00405    1.304e-005
   1   262   1     0     1     1  0.00407    0.00407    1.304e-005
   1   263   1     0     1     1  0.00408    0.00408    1.304e-005
   1   264   1     0     2     2  0.00410    0.00410    1.630e-005
   1   265   1     0     2     2  0.00412    0.00412    2.037e-005
   1   266   1     0     2     2  0.00414    0.00414    2.546e-005
   1   267   1     0     2     2  0.00417    0.00417    2.546e-005
   1   268   1U    0     2     2  0.00417    0.00417    2.546e-005
   1   268   2     0     2     2  0.00419    0.00419    1.795e-005
   1   269   1U    0     2     2  0.00419    0.00419    1.795e-005
   1   269   2     0     1     1  0.00419    0.00419    8.007e-006
   1   270   1U    0     1     1  0.00419    0.00419    8.007e-006
   1   270   2     0     1     1  0.00420    0.00420    6.353e-006
   1   271   1     0     1     1  0.00421    0.00421    6.353e-006
   1   272   1     0     2     2  0.00421    0.00421    6.353e-006
   1   273   1     0     2     2  0.00422    0.00422    6.353e-006
   1   274   1     0     2     2  0.00423    0.00423    6.353e-006
   1   275   1     0     2     2  0.00423    0.00423    6.353e-006
   1   276   1     0     2     2  0.00424    0.00424    6.353e-006
   1   277   1U    0     2     2  0.00424    0.00424    6.353e-006
   1   277   2     0     2     2  0.00424    0.00424    4.643e-006
   1   278   1     0     2     2  0.00425    0.00425    4.643e-006
   1   279   1     0     2     2  0.00425    0.00425    4.643e-006
   1   280   1     0     2     2  0.00426    0.00426    5.546e-006
   1   281   1     0     2     2  0.00426    0.00426    5.546e-006
   1   282   1     0     2     2  0.00427    0.00427    5.546e-006
   1   283   1     0     2     2  0.00427    0.00427    5.546e-006
   1   284   1     0     2     2  0.00428    0.00428    6.933e-006
   1   285   1     0     2     2  0.00429    0.00429    6.933e-006
   1   286   1     0     2     2  0.00430    0.00430    6.933e-006
   1   287   1     0     2     2  0.00430    0.00430    6.933e-006
   1   288   1     0     2     2  0.00431    0.00431    8.666e-006
   1   289   1     0     2     2  0.00432    0.00432    8.666e-006
   1   290   1     0     2     2  0.00433    0.00433    8.666e-006
   1   291   1     0     2     2  0.00434    0.00434    8.666e-006
   1   292   1     0     2     2  0.00435    0.00435    1.065e-005
   1   293   1     0     2     2  0.00436    0.00436    1.065e-005
   1   294   1     0     2     2  0.00437    0.00437    1.065e-005
   1   295   1     0     2     2  0.00438    0.00438    1.065e-005
   1   296   1     0     2     2  0.00439    0.00439    1.065e-005
   1   297   1     0     2     2  0.00440    0.00440    1.065e-005
   1   298   1     0     2     2  0.00441    0.00441    1.331e-005
   1   299   1U    0     2     2  0.00441    0.00441    1.663e-005
   1   299   2     0     1     1  0.00443    0.00443    1.404e-005
   1   300   1     0     2     2  0.00444    0.00444    1.404e-005
   1   301   1     0     1     1  0.00446    0.00446    1.404e-005
   1   302   1     0     2     2  0.00447    0.00447    1.755e-005
   1   303   1     0     2     2  0.00450    0.00450    2.193e-005
   1   304   1     0     2     2  0.00452    0.00452    2.193e-005
   1   305   1     0     2     2  0.00454    0.00454    2.193e-005
   1   306   1     0     1     1  0.00456    0.00456    2.193e-005
   1   307   1     0     2     2  0.00458    0.00458    2.193e-005
   1   308   1     0     2     2  0.00461    0.00461    2.742e-005
   1   309   1     0     2     2  0.00464    0.00464    3.427e-005
   1   310   1     0     2     2  0.00469    0.00469    4.284e-005
   1   311   1U    0     2     2  0.00469    0.00469    5.355e-005
   1   311   2     0     2     2  0.00472    0.00472    3.264e-005
   1   312   1     0     2     2  0.00475    0.00475    3.264e-005
   1   313   1U    0     2     2  0.00475    0.00475    3.264e-005
   1   313   2     0     2     2  0.00478    0.00478    2.482e-005
   1   314   1     0     2     2  0.00480    0.00480    2.482e-005
   1   315   1     0     2     2  0.00483    0.00483    2.482e-005
   1   316   1U    0     2     2  0.00483    0.00483    2.482e-005
   1   316   2     0     2     2  0.00485    0.00485    1.777e-005
   1   317   1     0     2     2  0.00486    0.00486    1.777e-005
   1   318   1     0     2     2  0.00488    0.00488    1.777e-005
   1   319   1     0     1     1  0.00490    0.00490    1.777e-005
   1   320   1     0     1     1  0.00492    0.00492    1.777e-005
   1   321   1     0     2     2  0.00494    0.00494    2.221e-005
   1   322   1     0     2     2  0.00497    0.00497    2.777e-005
   1   323   1     0     2     2  0.00500    0.00500    3.471e-005
   1   324   1     0     2     2  0.00504    0.00504    3.471e-005
   1   325   1U    0     2     2  0.00504    0.00504    3.471e-005
   1   325   2     0     2     2  0.00506    0.00506    2.834e-005
   1   326   1     0     2     2  0.00509    0.00509    2.834e-005
   1   327   1     0     2     2  0.00512    0.00512    2.834e-005
   1   328   1     0     2     2  0.00515    0.00515    2.834e-005
   1   329   1     0     2     2  0.00518    0.00518    3.542e-005
   1   330   1     0     2     2  0.00522    0.00522    3.542e-005
   1   331   1     0     2     2  0.00526    0.00526    3.542e-005
   1   332   1U    0     2     2  0.00526    0.00526    4.428e-005
   1   332   2     0     2     2  0.00529    0.00529    3.381e-005
   1   333   1U    0     2     2  0.00529    0.00529    3.381e-005
   1   333   2     0     1     1  0.00531    0.00531    1.767e-005
   1   334   1     0     1     1  0.00532    0.00532    1.767e-005
   1   335   1     0     2     2  0.00534    0.00534    1.767e-005
   1   336   1     0     2     2  0.00536    0.00536    1.767e-005
   1   337   1     0     2     2  0.00538    0.00538    1.767e-005
   1   338   1     0     2     2  0.00540    0.00540    1.767e-005
   1   339   1     0     2     2  0.00542    0.00542    2.208e-005
   1   340   1     0     2     2  0.00544    0.00544    2.760e-005
   1   341   1     0     2     2  0.00548    0.00548    3.450e-005
   1   342   1U    0     2     2  0.00548    0.00548    4.313e-005
   1   342   2     0     2     2  0.00551    0.00551    3.084e-005
   1   343   1U    0     2     2  0.00551    0.00551    3.084e-005
   1   343   2     0     1     1  0.00552    0.00552    1.228e-005
   1   344   1     0     2     2  0.00553    0.00553    1.228e-005
   1   345   1U    0     2     2  0.00553    0.00553    1.228e-005
   1   345   2     0     1     1  0.00554    0.00554    1.018e-005
   1   346   1     0     1     1  0.00556    0.00556    1.018e-005
   1   347   1     0     2     2  0.00557    0.00557    1.018e-005
   1   348   1     0     2     2  0.00558    0.00558    1.018e-005
   1   349   1     0     2     2  0.00559    0.00559    1.273e-005
   1   350   1     0     2     2  0.00560    0.00560    1.591e-005
   1   351   1     0     2     2  0.00562    0.00562    1.591e-005
   1   352   1     0     2     2  0.00564    0.00564    1.591e-005
   1   353   1     0     2     2  0.00565    0.00565    1.591e-005
   1   354   1     0     2     2  0.00567    0.00567    1.591e-005
   1   355   1     0     2     2  0.00569    0.00569    1.989e-005
   1   356   1     0     2     2  0.00571    0.00571    2.486e-005
   1   357   1U    0     2     2  0.00571    0.00571    2.486e-005
   1   357   2     0     2     2  0.00573    0.00573    1.848e-005
   1   358   1     0     2     2  0.00575    0.00575    1.848e-005
   1   359   1U    0     2     2  0.00575    0.00575    1.848e-005
   1   359   2     0     2     2  0.00576    0.00576    1.503e-005
   1   360   1     0     2     2  0.00578    0.00578    1.503e-005
   1   361   1U    0     2     2  0.00578    0.00578    1.503e-005
   1   361   2     0     1     1  0.00578    0.00578    5.161e-006
   1   362   1     0     1     1  0.00579    0.00579    5.161e-006
   1   363   1U    0     2     2  0.00579    0.00579    5.161e-006
   1   363   2     0     2     2  0.00579    0.00579    3.703e-006
   1   364   1     0     2     2  0.00580    0.00580    3.703e-006
   1   365   1U    0     2     2  0.00580    0.00580    3.703e-006
   1   365   2     0     2     2  0.00580    0.00580    3.090e-006
   1   366   1     0     2     2  0.00580    0.00580    3.090e-006
   1   367   1     0     2     2  0.00581    0.00581    3.090e-006
   1   368   1U    0     2     2  0.00581    0.00581    3.090e-006
   1   368   2     0     2     2  0.00581    0.00581    2.607e-006
   1   369   1     0     2     2  0.00581    0.00581    2.607e-006
   1   370   1     0     2     2  0.00581    0.00581    2.607e-006
   1   371   1     0     2     2  0.00582    0.00582    2.607e-006
   1   372   1     0     2     2  0.00582    0.00582    2.607e-006
   1   373   1     0     2     2  0.00582    0.00582    2.607e-006
   1   374   1     0     2     2  0.00582    0.00582    2.607e-006
   1   375   1     0     2     2  0.00583    0.00583    3.259e-006
   1   376   1     0     2     2  0.00583    0.00583    3.259e-006
   1   377   1U    0     2     2  0.00583    0.00583    3.970e-006
   1   377   2     0     1     1  0.00583    0.00583    3.278e-006
   1   378   1     0     2     2  0.00584    0.00584    3.278e-006
   1   379   1     0     2     2  0.00584    0.00584    3.278e-006
   1   380   1     0     2     2  0.00584    0.00584    3.706e-006
   1   381   1     0     2     2  0.00585    0.00585    3.706e-006
   1   382   1     0     2     2  0.00585    0.00585    4.501e-006
   1   383   1     0     2     2  0.00586    0.00586    4.501e-006
   1   384   1     0     2     2  0.00586    0.00586    4.501e-006
   1   385   1     0     2     2  0.00587    0.00587    4.501e-006
   1   386   1     0     2     2  0.00587    0.00587    4.501e-006
   1   387   1     0     2     2  0.00588    0.00588    4.501e-006
   1   388   1     0     2     2  0.00588    0.00588    4.501e-006
   1   389   1     0     1     1  0.00588    0.00588    4.501e-006
   1   390   1     0     1     1  0.00589    0.00589    4.501e-006
   1   391   1     0     2     2  0.00589    0.00589    5.626e-006
   1   392   1     0     2     2  0.00590    0.00590    7.032e-006
   1   393   1     0     2     2  0.00591    0.00591    8.790e-006
   1   394   1     0     2     2  0.00592    0.00592    1.099e-005
   1   395   1     0     2     2  0.00594    0.00594    1.373e-005
   1   396   1     0     2     2  0.00595    0.00595    1.373e-005
   1   397   1     0     2     2  0.00596    0.00596    1.373e-005
   1   398   1     0     2     2  0.00598    0.00598    1.373e-005
   1   399   1U    0     2     2  0.00598    0.00598    1.717e-005
   1   399   2     0     2     2  0.00599    0.00599    1.191e-005
   1   400   1U    0     2     2  0.00599    0.00599    1.191e-005
   1   400   2     0     2     2  0.00600    0.00600    8.954e-006
   1   401   1     0     2     2  0.00601    0.00601    8.954e-006
   1   402   1U    0     2     2  0.00601    0.00601    8.954e-006
   1   402   2     0     2     2  0.00601    0.00601    6.559e-006
   1   403   1     0     2     2  0.00602    0.00602    6.559e-006
   1   404   1     0     2     2  0.00603    0.00603    6.559e-006
   1   405   1     0     2     2  0.00603    0.00603    6.559e-006
   1   406   1     0     2     2  0.00604    0.00604    6.559e-006
   1   407   1     0     2     2  0.00605    0.00605    6.559e-006
   1   408   1U    0     2     2  0.00605    0.00605    6.559e-006
   1   408   2     0     2     2  0.00605    0.00605    4.916e-006
   1   409   1     0     2     2  0.00606    0.00606    4.916e-006
   1   410   1     0     2     2  0.00606    0.00606    4.916e-006
   1   411   1     0     2     2  0.00607    0.00607    4.916e-006
   1   412   1     0     2     2  0.00607    0.00607    4.916e-006
   1   413   1     0     2     2  0.00608    0.00608    4.916e-006
   1   414   1U    0     2     2  0.00608    0.00608    4.916e-006
   1   414   2     0     2     2  0.00608    0.00608    4.158e-006
   1   415   1     0     2     2  0.00608    0.00608    4.158e-006
   1   416   1     0     2     2  0.00609    0.00609    4.158e-006
   1   417   1     0     2     2  0.00609    0.00609    4.158e-006
   1   418   1     0     2     2  0.00610    0.00610    4.158e-006
   1   419   1     0     2     2  0.00610    0.00610    4.158e-006
   1   420   1     0     2     2  0.00610    0.00610    4.158e-006
   1   421   1     0     2     2  0.00611    0.00611    4.158e-006
   1   422   1     0     2     2  0.00611    0.00611    4.158e-006
   1   423   1     0     2     2  0.00612    0.00612    4.158e-006
   1   424   1     0     2     2  0.00612    0.00612    4.158e-006
   1   425   1     0     2     2  0.00612    0.00612    4.158e-006
   1   426   1     0     2     2  0.00613    0.00613    4.158e-006
   1   427   1     0     2     2  0.00613    0.00613    4.158e-006
   1   428   1     0     2     2  0.00614    0.00614    4.158e-006
   1   429   1     0     2     2  0.00614    0.00614    4.742e-006
   1   430   1     0     2     2  0.00615    0.00615    4.742e-006
   1   431   1     0     2     2  0.00615    0.00615    4.742e-006
   1   432   1     0     2     2  0.00616    0.00616    4.742e-006
   1   433   1     0     2     2  0.00616    0.00616    4.742e-006
   1   434   1     0     2     2  0.00617    0.00617    4.742e-006
   1   435   1     0     2     2  0.00617    0.00617    5.641e-006
   1   436   1     0     2     2  0.00618    0.00618    5.641e-006
   1   437   1     0     2     2  0.00618    0.00618    5.641e-006
   1   438   1     0     2     2  0.00619    0.00619    5.641e-006
   1   439   1     0     2     2  0.00619    0.00619    5.641e-006
   1   440   1     0     2     2  0.00620    0.00620    5.641e-006
   1   441   1     0     2     2  0.00621    0.00621    5.641e-006
   1   442   1     0     2     2  0.00621    0.00621    5.641e-006
   1   443   1     0     2     2  0.00622    0.00622    5.641e-006
   1   444   1     0     2     2  0.00622    0.00622    6.354e-006
   1   445   1     0     2     2  0.00623    0.00623    6.354e-006
   1   446   1     0     2     2  0.00624    0.00624    6.354e-006
   1   447   1     0     2     2  0.00624    0.00624    6.354e-006
   1   448   1     0     2     2  0.00625    0.00625    7.942e-006
   1   449   1U    0     2     2  0.00625    0.00625    7.942e-006
   1   449   2     0     1     1  0.00626    0.00626    5.941e-006
   1   450   1     0     2     2  0.00626    0.00626    5.941e-006
   1   451   1     0     2     2  0.00627    0.00627    5.941e-006
   1   452   1     0     2     2  0.00628    0.00628    7.427e-006
   1   453   1     0     2     2  0.00628    0.00628    9.283e-006
   1   454   1     0     2     2  0.00630    0.00630    1.119e-005
   1   455   1     0     2     2  0.00631    0.00631    1.119e-005
   1   456   1     0     2     2  0.00632    0.00632    1.119e-005
   1   457   1     0     2     2  0.00633    0.00633    1.119e-005
   1   458   1     0     2     2  0.00634    0.00634    1.119e-005
   1   459   1     0     2     2  0.00635    0.00635    1.399e-005
   1   460   1     0     2     2  0.00637    0.00637    1.749e-005
   1   461   1     0     2     2  0.00639    0.00639    2.186e-005
   1   462   1U    0     2     2  0.00639    0.00639    2.186e-005
   1   462   2     0     2     2  0.00641    0.00641    1.553e-005
   1   463   1     0     2     2  0.00642    0.00642    1.553e-005
   1   464   1U    0     2     2  0.00642    0.00642    1.553e-005
   1   464   2     0     2     2  0.00644    0.00644    1.125e-005
   1   465   1     0     2     2  0.00645    0.00645    1.125e-005
   1   466   1     0     2     2  0.00646    0.00646    1.125e-005
   1   467   1     0     2     2  0.00647    0.00647    1.125e-005
   1   468   1     0     2     2  0.00648    0.00648    1.125e-005
   1   469   1     0     2     2  0.00649    0.00649    1.125e-005
   1   470   1     0     2     2  0.00651    0.00651    1.406e-005
   1   471   1U    0     2     2  0.00651    0.00651    1.757e-005
   1   471   2     0     2     2  0.00652    0.00652    1.060e-005
   1   472   1     0     2     2  0.00653    0.00653    1.060e-005
   1   473   1     0     2     2  0.00654    0.00654    1.060e-005
   1   474   1     0     2     2  0.00655    0.00655    1.325e-005
   1   475   1     0     2     2  0.00657    0.00657    1.656e-005
   1   476   1     0     2     2  0.00659    0.00659    2.070e-005
   1   477   1     0     2     2  0.00661    0.00661    2.070e-005
   1   478   1U    0     2     2  0.00661    0.00661    2.070e-005
   1   478   2     0     2     2  0.00662    0.00662    1.518e-005
   1   479   1     0     2     2  0.00664    0.00664    1.518e-005
   1   480   1     0     2     2  0.00665    0.00665    1.518e-005
   1   481   1     0     2     2  0.00667    0.00667    1.898e-005
   1   482   1     0     2     2  0.00669    0.00669    1.898e-005
   1   483   1     0     2     2  0.00672    0.00672    2.372e-005
   1   484   1U    0     2     2  0.00672    0.00672    2.372e-005
   1   484   2     0     2     2  0.00673    0.00673    1.569e-005
   1   485   1     0     2     2  0.00675    0.00675    1.569e-005
   1   486   1     0     2     2  0.00676    0.00676    1.569e-005
   1   487   1     0     2     2  0.00678    0.00678    1.961e-005
   1   488   1     0     2     2  0.00681    0.00681    2.451e-005
   1   489   1U    0     2     2  0.00681    0.00681    2.451e-005
   1   489   2     0     2     2  0.00683    0.00683    1.997e-005
   1   490   1     0     2     2  0.00685    0.00685    1.997e-005
   1   491   1     0     2     2  0.00687    0.00687    1.997e-005
   1   492   1     0     2     2  0.00689    0.00689    1.997e-005
   1   493   1     0     2     2  0.00691    0.00691    1.997e-005
   1   494   1U    0     2     2  0.00691    0.00691    2.496e-005
   1   494   2     0     2     2  0.00692    0.00692    1.526e-005
   1   495   1     0     1     1  0.00694    0.00694    1.526e-005
   1   496   1     0     1     1  0.00695    0.00695    1.526e-005
   1   497   1     0     2     2  0.00697    0.00697    1.908e-005
   1   498   1     0     2     2  0.00700    0.00700    2.385e-005
   1   499   1     0     2     2  0.00702    0.00702    2.385e-005
   1   500   1U    0     2     2  0.00702    0.00702    2.385e-005
   1   500   2     0     1     1  0.00703    0.00703    1.216e-005
   1   501   1     0     2     2  0.00704    0.00704    1.216e-005
   1   502   1     0     1     1  0.00706    0.00706    1.216e-005
   1   503   1     0     1     1  0.00707    0.00707    1.216e-005
   1   504   1     0     2     2  0.00708    0.00708    1.216e-005
   1   505   1     0     2     2  0.00709    0.00709    1.216e-005
   1   506   1     0     2     2  0.00711    0.00711    1.520e-005
   1   507   1     0     2     2  0.00713    0.00713    1.899e-005
   1   508   1     0     2     2  0.00715    0.00715    2.374e-005
   1   509   1U    0     2     2  0.00715    0.00715    2.374e-005
   1   509   2     0     2     2  0.00717    0.00717    1.840e-005
   1   510   1     0     2     2  0.00719    0.00719    1.840e-005
   1   511   1     0     2     2  0.00721    0.00721    1.840e-005
   1   512   1     0     2     2  0.00722    0.00722    1.840e-005
   1   513   1     0     2     2  0.00725    0.00725    2.300e-005
   1   514   1     0     2     2  0.00728    0.00728    2.875e-005
   1   515   1     0     2     2  0.00731    0.00731    2.875e-005
   1   516   1     0     2     2  0.00734    0.00734    3.594e-005
   1   517   1     0     2     2  0.00738    0.00738    3.594e-005
   1   518   1     0     2     2  0.00741    0.00741    3.594e-005
   1   519   1     0     2     2  0.00745    0.00745    3.594e-005
   1   520   1     0     2     2  0.00749    0.00749    4.492e-005
   1   521   1     0     2     2  0.00754    0.00754    4.492e-005
   1   522   1U    0     2     2  0.00754    0.00754    4.492e-005
   1   522   2     0     2     2  0.00757    0.00757    2.987e-005
   1   523   1U    0     2     2  0.00757    0.00757    2.987e-005
   1   523   2     0     1     1  0.00758    0.00758    7.881e-006
   1   524   1U    0     1     1  0.00758    0.00758    7.881e-006
   1   524   2     0     1     1  0.00758    0.00758    5.466e-006
   1   525   1     0     2     2  0.00759    0.00759    5.466e-006
   1   526   1     0     2     2  0.00759    0.00759    5.466e-006
   1   527   1     0     2     2  0.00760    0.00760    5.466e-006
   1   528   1     0     2     2  0.00760    0.00760    5.466e-006
   1   529   1U    0     2     2  0.00760    0.00760    5.466e-006
   1   529   2     0     2     2  0.00761    0.00761    3.501e-006
   1   530   1     0     2     2  0.00761    0.00761    3.501e-006
   1   531   1     0     2     2  0.00761    0.00761    3.501e-006
   1   532   1     0     2     2  0.00762    0.00762    3.501e-006
   1   533   1     0     2     2  0.00762    0.00762    3.501e-006
   1   534   1     0     2     2  0.00762    0.00762    3.501e-006
   1   535   1     0     2     2  0.00763    0.00763    3.501e-006
   1   536   1     0     2     2  0.00763    0.00763    3.501e-006
   1   537   1     0     2     2  0.00764    0.00764    3.501e-006
   1   538   1     0     2     2  0.00764    0.00764    3.501e-006
   1   539   1     0     2     2  0.00764    0.00764    3.501e-006
   1   540   1     0     2     2  0.00765    0.00765    3.501e-006
   1   541   1     0     2     2  0.00765    0.00765    3.501e-006
   1   542   1     0     2     2  0.00765    0.00765    3.501e-006
   1   543   1     0     2     2  0.00766    0.00766    3.501e-006
   1   544   1     0     2     2  0.00766    0.00766    3.501e-006
   1   545   1     0     2     2  0.00766    0.00766    3.501e-006
   1   546   1     0     2     2  0.00767    0.00767    4.024e-006
   1   547   1     0     2     2  0.00767    0.00767    4.024e-006
   1   548   1     0     2     2  0.00768    0.00768    4.024e-006
   1   549   1     0     2     2  0.00768    0.00768    4.024e-006
   1   550   1     0     2     2  0.00768    0.00768    4.024e-006
   1   551   1     0     1     1  0.00769    0.00769    5.031e-006
   1   552   1U    0     2     2  0.00769    0.00769    6.288e-006
   1   552   2     0     1     1  0.00769    0.00769    3.901e-006
   1   553   1     0     1     1  0.00770    0.00770    3.901e-006
   1   554   1     0     2     2  0.00770    0.00770    3.901e-006
   1   555   1U    0     2     2  0.00770    0.00770    4.876e-006
   1   555   2     0     2     2  0.00770    0.00770    4.050e-006
   1   556   1     0     2     2  0.00771    0.00771    4.050e-006
   1   557   1     0     2     2  0.00771    0.00771    4.050e-006
   1   558   1     0     2     2  0.00772    0.00772    4.050e-006
   1   559   1     0     2     2  0.00772    0.00772    4.050e-006
   1   560   1     0     2     2  0.00772    0.00772    4.050e-006
   1   561   1     0     2     2  0.00773    0.00773    4.050e-006
   1   562   1     0     2     2  0.00773    0.00773    4.050e-006
   1   563   1     0     2     2  0.00774    0.00774    4.447e-006
   1   564   1     0     2     2  0.00774    0.00774    4.447e-006
   1   565   1     0     2     2  0.00775    0.00775    4.447e-006
   1   566   1     0     2     2  0.00775    0.00775    4.447e-006
   1   567   1     0     1     1  0.00775    0.00775    4.447e-006
   1   568   1     0     2     2  0.00776    0.00776    5.559e-006
   1   569   1     0     2     2  0.00777    0.00777    6.948e-006
   1   570   1     0     2     2  0.00778    0.00778    8.686e-006
   1   571   1     0     2     2  0.00779    0.00779    1.086e-005
   1   572   1     0     2     2  0.00780    0.00780    1.357e-005
   1   573   1U    0     2     2  0.00780    0.00780    1.357e-005
   1   573   2     0     2     2  0.00781    0.00781    1.078e-005
   1   574   1U    0     2     2  0.00781    0.00781    1.078e-005
   1   574   2     0     2     2  0.00782    0.00782    4.982e-006
   1   575   1     0     2     2  0.00782    0.00782    4.982e-006
   1   576   1     0     2     2  0.00783    0.00783    4.982e-006
   1   577   1     0     2     2  0.00783    0.00783    6.228e-006
   1   578   1     0     2     2  0.00784    0.00784    6.228e-006
   1   579   1     0     2     2  0.00785    0.00785    7.784e-006
   1   580   1     0     2     2  0.00786    0.00786    9.731e-006
   1   581   1U    0     2     2  0.00786    0.00786    1.216e-005
   1   581   2     0     2     2  0.00787    0.00787    9.169e-006
   1   582   1     0     2     2  0.00787    0.00787    9.169e-006
   1   583   1     0     2     2  0.00788    0.00788    9.169e-006
   1   584   1     0     2     2  0.00789    0.00789    9.169e-006
   1   585   1U    0     2     2  0.00789    0.00789    9.169e-006
   1   585   2     0     2     2  0.00790    0.00790    4.056e-006
   1   586   1     0     2     2  0.00790    0.00790    4.056e-006
   1   587   1U    0     2     2  0.00790    0.00790    4.056e-006
   1   587   2     0     2     2  0.00790    0.00790    3.436e-006
   1   588   1     0     2     2  0.00791    0.00791    3.436e-006
   1   589   1U    0     2     2  0.00791    0.00791    3.436e-006
   1   589   2     0     2     2  0.00791    0.00791    2.886e-006
   1   590   1     0     2     2  0.00791    0.00791    2.886e-006
   1   591   1     0     2     2  0.00792    0.00792    2.886e-006
   1   592   1     0     2     2  0.00792    0.00792    2.886e-006
   1   593   1     0     2     2  0.00792    0.00792    2.886e-006
   1   594   1     0     2     2  0.00793    0.00793    2.886e-006
   1   595   1     0     2     2  0.00793    0.00793    2.886e-006
   1   596   1     0     2     2  0.00793    0.00793    2.886e-006
   1   597   1     0     2     2  0.00793    0.00793    2.886e-006
   1   598   1     0     2     2  0.00794    0.00794    2.886e-006
   1   599   1     0     2     2  0.00794    0.00794    2.886e-006
   1   600   1     0     2     2  0.00794    0.00794    2.886e-006
   1   601   1     0     2     2  0.00795    0.00795    2.886e-006
   1   602   1     0     2     2  0.00795    0.00795    2.886e-006
   1   603   1     0     2     2  0.00795    0.00795    2.886e-006
   1   604   1     0     2     2  0.00795    0.00795    2.886e-006
   1   605   1     0     2     2  0.00796    0.00796    2.886e-006
   1   606   1     0     2     2  0.00796    0.00796    2.886e-006
   1   607   1     0     2     2  0.00796    0.00796    2.886e-006
   1   608   1     0     2     2  0.00797    0.00797    2.886e-006
   1   609   1     0     2     2  0.00797    0.00797    2.886e-006
   1   610   1U    0     2     2  0.00797    0.00797    2.886e-006
   1   610   2     0     2     2  0.00797    0.00797    2.332e-006
   1   611   1     0     2     2  0.00797    0.00797    2.332e-006
   1   612   1     0     2     2  0.00798    0.00798    2.332e-006
   1   613   1     0     2     2  0.00798    0.00798    2.752e-006
   1   614   1     0     2     2  0.00798    0.00798    2.752e-006
   1   615   1     0     2     2  0.00798    0.00798    2.752e-006
   1   616   1     0     2     2  0.00799    0.00799    2.752e-006
   1   617   1     0     2     2  0.00799    0.00799    2.752e-006
   1   618   1     0     2     2  0.00799    0.00799    2.752e-006
   1   619   1     0     2     2  0.00800    0.00800    3.269e-006
   1   620   1     0     2     2  0.00800    0.00800    3.269e-006
   1   621   1     0     2     2  0.00800    0.00800    3.269e-006
   1   622   1     0     2     2  0.00801    0.00801    3.269e-006
   1   623   1     0     2     2  0.00801    0.00801    3.269e-006
   1   624   1     0     2     2  0.00801    0.00801    4.080e-006
   1   625   1     0     1     1  0.00802    0.00802    4.080e-006
   1   626   1     0     2     2  0.00802    0.00802    4.973e-006
   1   627   1     0     2     2  0.00803    0.00803    4.973e-006
   1   628   1     0     2     2  0.00803    0.00803    4.973e-006
   1   629   1     0     2     2  0.00804    0.00804    4.973e-006
   1   630   1     0     2     2  0.00804    0.00804    6.186e-006
   1   631   1     0     2     2  0.00805    0.00805    6.186e-006
   1   632   1     0     2     2  0.00806    0.00806    7.427e-006
   1   633   1     0     2     2  0.00806    0.00806    7.427e-006
   1   634   1     0     2     2  0.00807    0.00807    7.427e-006
   1   635   1     0     2     2  0.00808    0.00808    7.427e-006
   1   636   1     0     2     2  0.00809    0.00809    7.427e-006
   1   637   1     0     2     2  0.00810    0.00810    9.283e-006
   1   638   1     0     2     2  0.00811    0.00811    1.160e-005
   1   639   1     0     2     2  0.00812    0.00812    1.450e-005
   1   640   1     0     2     2  0.00814    0.00814    1.813e-005
   1   641   1     0     2     2  0.00816    0.00816    2.266e-005
   1   642   1U    0     2     2  0.00816    0.00816    2.266e-005
   1   642   2     0     2     2  0.00818    0.00818    1.787e-005
   1   643   1U    0     2     2  0.00818    0.00818    1.787e-005
   1   643   2     0     1     1  0.00819    0.00819    7.534e-006
   1   644   1U    0     2     2  0.00819    0.00819    7.534e-006
   1   644   2     0     1     1  0.00819    0.00819    6.061e-006
   1   645   1     0     2     2  0.00820    0.00820    6.061e-006
   1   646   1     0     2     2  0.00821    0.00821    6.061e-006
   1   647   1     0     2     2  0.00821    0.00821    6.061e-006
   1   648   1     0     2     2  0.00822    0.00822    6.061e-006
   1   649   1U    0     2     2  0.00822    0.00822    6.061e-006
   1   649   2     0     2     2  0.00822    0.00822    4.963e-006
   1   650   1     0     2     2  0.00823    0.00823    4.963e-006
   1   651   1     0     2     2  0.00823    0.00823    4.963e-006
   1   652   1     0     2     2  0.00824    0.00824    4.963e-006
   1   653   1     0     2     2  0.00824    0.00824    4.963e-006
   1   654   1U    0     2     2  0.00824    0.00824    4.963e-006
   1   654   2     0     2     2  0.00825    0.00825    3.851e-006
   1   655   1     0     2     2  0.00825    0.00825    3.851e-006
   1   656   1     0     2     2  0.00825    0.00825    3.851e-006
   1   657   1     0     2     2  0.00826    0.00826    3.851e-006
   1   658   1     0     2     2  0.00826    0.00826    3.851e-006
   1   659   1     0     2     2  0.00827    0.00827    3.851e-006
   1   660   1     0     2     2  0.00827    0.00827    3.851e-006
   1   661   1     0     2     2  0.00827    0.00827    3.851e-006
   1   662   1     0     2     2  0.00828    0.00828    3.851e-006
   1   663   1     0     2     2  0.00828    0.00828    3.851e-006
   1   664   1     0     2     2  0.00828    0.00828    3.851e-006
   1   665   1     0     2     2  0.00829    0.00829    3.851e-006
   1   666   1     0     2     2  0.00829    0.00829    3.851e-006
   1   667   1     0     2     2  0.00830    0.00830    3.851e-006
   1   668   1     0     2     2  0.00830    0.00830    3.851e-006
   1   669   1     0     2     2  0.00830    0.00830    3.851e-006
   1   670   1     0     2     2  0.00831    0.00831    3.851e-006
   1   671   1     0     2     2  0.00831    0.00831    3.851e-006
   1   672   1     0     2     2  0.00832    0.00832    3.851e-006
   1   673   1     0     2     2  0.00832    0.00832    3.851e-006
   1   674   1     0     2     2  0.00832    0.00832    3.851e-006
   1   675   1     0     2     2  0.00833    0.00833    3.851e-006
   1   676   1     0     2     2  0.00833    0.00833    4.239e-006
   1   677   1     0     2     2  0.00834    0.00834    4.239e-006
   1   678   1     0     2     2  0.00834    0.00834    4.239e-006
   1   679   1     0     2     2  0.00834    0.00834    4.239e-006
   1   680   1     0     2     2  0.00835    0.00835    4.239e-006
   1   681   1     0     2     2  0.00835    0.00835    5.299e-006
   1   682   1     0     2     2  0.00836    0.00836    6.211e-006
   1   683   1     0     2     2  0.00837    0.00837    6.211e-006
   1   684   1     0     2     2  0.00837    0.00837    6.211e-006
   1   685   1     0     2     2  0.00838    0.00838    6.211e-006
   1   686   1     0     2     2  0.00839    0.00839    7.763e-006
   1   687   1     0     2     2  0.00839    0.00839    7.763e-006
   1   688   1     0     2     2  0.00840    0.00840    7.763e-006
   1   689   1     0     2     2  0.00841    0.00841    7.763e-006
   1   690   1     0     1     1  0.00842    0.00842    7.763e-006
   1   691   1     0     2     2  0.00843    0.00843    7.763e-006
   1   692   1     0     1     1  0.00843    0.00843    7.763e-006
   1   693   1     0     2     2  0.00844    0.00844    9.117e-006
   1   694   1     0     2     2  0.00845    0.00845    9.117e-006
   1   695   1U    0     2     2  0.00845    0.00845    9.117e-006
   1   695   2     0     1     1  0.00846    0.00846    5.807e-006
   1   696   1     0     2     2  0.00846    0.00846    5.807e-006
   1   697   1     0     2     2  0.00847    0.00847    5.807e-006
   1   698   1     0     2     2  0.00847    0.00847    5.807e-006
   1   699   1     0     2     2  0.00848    0.00848    5.807e-006
   1   700   1     0     2     2  0.00849    0.00849    7.259e-006
   1   701   1     0     2     2  0.00850    0.00850    9.074e-006
   1   702   1     0     2     2  0.00851    0.00851    1.134e-005
   1   703   1     0     2     2  0.00852    0.00852    1.418e-005
   1   704   1     0     2     2  0.00854    0.00854    1.772e-005
   1   705   1U    0     2     2  0.00854    0.00854    2.215e-005
   1   705   2     0     2     2  0.00855    0.00855    1.363e-005
   1   706   1U    0     2     2  0.00855    0.00855    1.363e-005
   1   706   2     0     2     2  0.00856    0.00856    1.043e-005
   1   707   1     0     2     2  0.00857    0.00857    1.043e-005
   1   708   1     0     2     2  0.00858    0.00858    1.043e-005
   1   709   1U    0     2     2  0.00858    0.00858    1.283e-005
   1   709   2     0     2     2  0.00859    0.00859    7.852e-006
   1   710   1     0     2     2  0.00860    0.00860    7.852e-006
   1   711   1     0     2     2  0.00861    0.00861    7.852e-006
   1   712   1U    0     2     2  0.00861    0.00861    9.311e-006
   1   712   2     0     2     2  0.00862    0.00862    7.659e-006
   1   713   1     0     2     2  0.00862    0.00862    7.659e-006
   1   714   1     0     2     2  0.00863    0.00863    7.659e-006
   1   715   1     0     2     2  0.00864    0.00864    7.659e-006
   1   716   1     0     2     2  0.00865    0.00865    7.659e-006
   1   717   1     0     2     2  0.00865    0.00865    7.659e-006
   1   718   1     0     2     2  0.00866    0.00866    7.659e-006
   1   719   1     0     2     2  0.00867    0.00867    7.659e-006
   1   720   1     0     2     2  0.00868    0.00868    7.659e-006
   1   721   1     0     2     2  0.00868    0.00868    7.659e-006
   1   722   1     0     2     2  0.00869    0.00869    7.659e-006
   1   723   1     0     2     2  0.00870    0.00870    7.659e-006
   1   724   1     0     2     2  0.00871    0.00871    9.574e-006
   1   725   1     0     2     2  0.00872    0.00872    1.197e-005
   1   726   1     0     2     2  0.00873    0.00873    1.197e-005
   1   727   1     0     2     2  0.00875    0.00875    1.197e-005
   1   728   1     0     2     2  0.00876    0.00876    1.197e-005
   1   729   1     0     2     2  0.00877    0.00877    1.496e-005
   1   730   1     0     2     2  0.00879    0.00879    1.870e-005
   1   731   1     0     2     2  0.00881    0.00881    2.337e-005
   1   732   1     0     2     2  0.00884    0.00884    2.337e-005
   1   733   1     0     2     2  0.00886    0.00886    2.337e-005
   1   734   1     0     2     2  0.00888    0.00888    2.337e-005
   1   735   1     0     2     2  0.00891    0.00891    2.337e-005
   1   736   1     0     2     2  0.00893    0.00893    2.337e-005
   1   737   1U    0     2     2  0.00893    0.00893    2.337e-005
   1   737   2     0     2     2  0.00895    0.00895    1.401e-005
   1   738   1     0     2     2  0.00896    0.00896    1.401e-005
   1   739   1U    0     2     2  0.00896    0.00896    1.401e-005
   1   739   2     0     1     1  0.00897    0.00897    7.936e-006
   1   740   1     0     2     2  0.00898    0.00898    7.936e-006
   1   741   1     0     1     1  0.00898    0.00898    7.936e-006
   1   742   1     0     2     2  0.00899    0.00899    9.921e-006
   1   743   1     0     2     2  0.00900    0.00900    9.921e-006
   1   744   1U    0     2     2  0.00900    0.00900    9.921e-006
   1   744   2     0     1     1  0.00901    0.00901    7.356e-006
   1   745   1     0     2     2  0.00902    0.00902    7.356e-006
   1   746   1     0     2     2  0.00903    0.00903    7.356e-006
   1   747   1     0     2     2  0.00903    0.00903    7.356e-006
   1   748   1U    0     2     2  0.00903    0.00903    7.356e-006
   1   748   2     0     2     2  0.00904    0.00904    5.608e-006
   1   749   1     0     2     2  0.00904    0.00904    5.608e-006
   1   750   1U    0     2     2  0.00904    0.00904    5.608e-006
   1   750   2     0     2     2  0.00905    0.00905    4.423e-006
   1   751   1     0     2     2  0.00905    0.00905    4.423e-006
   1   752   1     0     2     2  0.00906    0.00906    4.423e-006
   1   753   1     0     2     2  0.00906    0.00906    4.423e-006
   1   754   1     0     2     2  0.00907    0.00907    4.423e-006
   1   755   1     0     2     2  0.00907    0.00907    4.423e-006
   1   756   1     0     2     2  0.00907    0.00907    4.423e-006
   1   757   1     0     2     2  0.00908    0.00908    4.423e-006
   1   758   1     0     2     2  0.00908    0.00908    4.423e-006
   1   759   1     0     2     2  0.00909    0.00909    4.423e-006
   1   760   1     0     2     2  0.00909    0.00909    4.423e-006
   1   761   1     0     2     2  0.00910    0.00910    4.423e-006
   1   762   1     0     2     2  0.00910    0.00910    4.423e-006
   1   763   1     0     2     2  0.00911    0.00911    4.423e-006
   1   764   1     0     2     2  0.00911    0.00911    4.423e-006
   1   765   1     0     2     2  0.00911    0.00911    4.423e-006
   1   766   1     0     2     2  0.00912    0.00912    4.423e-006
   1   767   1     0     2     2  0.00912    0.00912    4.423e-006
   1   768   1     0     2     2  0.00913    0.00913    5.100e-006
   1   769   1     0     2     2  0.00913    0.00913    5.100e-006
   1   770   1     0     2     2  0.00914    0.00914    5.100e-006
   1   771   1     0     2     2  0.00914    0.00914    5.100e-006
   1   772   1     0     2     2  0.00915    0.00915    5.100e-006
   1   773   1U    0     2     2  0.00915    0.00915    6.143e-006
   1   773   2     0     2     2  0.00915    0.00915    4.621e-006
   1   774   1     0     2     2  0.00916    0.00916    4.621e-006
   1   775   1     0     2     2  0.00916    0.00916    4.621e-006
   1   776   1U    0     2     2  0.00916    0.00916    5.776e-006
   1   776   2     0     2     2  0.00917    0.00917    4.827e-006
   1   777   1     0     2     2  0.00917    0.00917    4.827e-006
   1   778   1     0     2     2  0.00918    0.00918    4.827e-006
   1   779   1     0     2     2  0.00918    0.00918    6.034e-006
   1   780   1     0     2     2  0.00919    0.00919    7.542e-006
   1   781   1     0     2     2  0.00920    0.00920    9.428e-006
   1   782   1     0     2     2  0.00921    0.00921    1.179e-005
   1   783   1     0     2     2  0.00923    0.00923    1.360e-005
   1   784   1     0     2     2  0.00924    0.00924    1.360e-005
   1   785   1     0     2     2  0.00926    0.00926    1.699e-005
   1   786   1     0     2     2  0.00928    0.00928    2.124e-005
   1   787   1     0     2     2  0.00930    0.00930    2.655e-005
   1   788   1     0     2     2  0.00934    0.00934    3.319e-005
   1   789   1     0     2     2  0.00938    0.00938    4.149e-005
   1   790   1U    0     2     2  0.00938    0.00938    4.149e-005
   1   790   2     0     2     2  0.00941    0.00941    2.732e-005
   1   791   1     0     2     2  0.00943    0.00943    2.732e-005
   1   792   1     0     2     2  0.00946    0.00946    2.732e-005
   1   793   1U    0     2     2  0.00946    0.00946    2.732e-005
   1   793   2     0     2     2  0.00947    0.00947    1.378e-005
   1   794   1     0     2     2  0.00949    0.00949    1.378e-005
   1   795   1U    0     2     2  0.00949    0.00949    1.378e-005
   1   795   2     0     2     2  0.00950    0.00950    9.253e-006
   1   796   1     0     2     2  0.00951    0.00951    9.253e-006
   1   797   1U    0     2     2  0.00951    0.00951    9.253e-006
   1   797   2     0     2     2  0.00951    0.00951    7.393e-006
   1   798   1U    0     2     2  0.00951    0.00951    7.393e-006
   1   798   2     0     1     1  0.00952    0.00952    5.593e-006
   1   799   1     0     2     2  0.00953    0.00953    5.593e-006
   1   800   1U    0     2     2  0.00953    0.00953    5.593e-006
   1   800   2     0     2     2  0.00953    0.00953    4.171e-006
   1   801   1     0     2     2  0.00953    0.00953    4.171e-006
   1   802   1     0     2     2  0.00954    0.00954    4.171e-006
   1   803   1     0     2     2  0.00954    0.00954    4.171e-006
   1   804   1U    0     2     2  0.00954    0.00954    4.171e-006
   1   804   2     0     2     2  0.00955    0.00955    3.198e-006
   1   805   1     0     2     2  0.00955    0.00955    3.198e-006
   1   806   1     0     2     2  0.00955    0.00955    3.198e-006
   1   807   1     0     2     2  0.00955    0.00955    3.198e-006
   1   808   1     0     2     2  0.00956    0.00956    3.198e-006
   1   809   1     0     2     2  0.00956    0.00956    3.198e-006
   1   810   1     0     2     2  0.00956    0.00956    3.198e-006
   1   811   1     0     2     2  0.00957    0.00957    3.198e-006
   1   812   1     0     2     2  0.00957    0.00957    3.198e-006
   1   813   1     0     2     2  0.00957    0.00957    3.198e-006
   1   814   1     0     2     2  0.00958    0.00958    3.198e-006
   1   815   1     0     2     2  0.00958    0.00958    3.198e-006
   1   816   1     0     2     2  0.00958    0.00958    3.198e-006
   1   817   1     0     2     2  0.00959    0.00959    3.198e-006
   1   818   1     0     2     2  0.00959    0.00959    3.587e-006
   1   819   1     0     2     2  0.00959    0.00959    3.587e-006
   1   820   1     0     2     2  0.00960    0.00960    3.587e-006
   1   821   1     0     2     2  0.00960    0.00960    3.587e-006
   1   822   1     0     2     2  0.00961    0.00961    4.011e-006
   1   823   1     0     2     2  0.00961    0.00961    4.011e-006
   1   824   1     0     2     2  0.00961    0.00961    4.011e-006
   1   825   1U    0     2     2  0.00961    0.00961    4.011e-006
   1   825   2     0     2     2  0.00962    0.00962    2.868e-006
   1   826   1     0     2     2  0.00962    0.00962    2.868e-006
   1   827   1     0     2     2  0.00962    0.00962    2.868e-006
   1   828   1     0     2     2  0.00962    0.00962    2.868e-006
   1   829   1     0     2     2  0.00963    0.00963    2.868e-006
   1   830   1     0     2     2  0.00963    0.00963    2.868e-006
   1   831   1     0     2     2  0.00963    0.00963    2.868e-006
   1   832   1     0     2     2  0.00964    0.00964    2.868e-006
   1   833   1     0     2     2  0.00964    0.00964    2.868e-006
   1   834   1     0     2     2  0.00964    0.00964    2.868e-006
   1   835   1     0     2     2  0.00964    0.00964    2.868e-006
   1   836   1     0     2     2  0.00965    0.00965    2.868e-006
   1   837   1     0     2     2  0.00965    0.00965    2.868e-006
   1   838   1     0     2     2  0.00965    0.00965    2.868e-006
   1   839   1     0     2     2  0.00966    0.00966    2.868e-006
   1   840   1     0     2     2  0.00966    0.00966    2.868e-006
   1   841   1     0     2     2  0.00966    0.00966    2.868e-006
   1   842   1     0     2     2  0.00967    0.00967    3.230e-006
   1   843   1     0     2     2  0.00967    0.00967    3.230e-006
   1   844   1     0     2     2  0.00967    0.00967    3.230e-006
   1   845   1     0     2     2  0.00967    0.00967    3.230e-006
   1   846   1     0     2     2  0.00968    0.00968    3.230e-006
   1   847   1     0     2     2  0.00968    0.00968    3.230e-006
   1   848   1     0     2     2  0.00968    0.00968    3.230e-006
   1   849   1     0     2     2  0.00969    0.00969    3.230e-006
   1   850   1     0     2     2  0.00969    0.00969    3.230e-006
   1   851   1     0     2     2  0.00970    0.00970    3.992e-006
   1   852   1     0     2     2  0.00970    0.00970    3.992e-006
   1   853   1     0     2     2  0.00970    0.00970    3.992e-006
   1   854   1     0     2     2  0.00971    0.00971    3.992e-006
   1   855   1     0     2     2  0.00971    0.00971    3.992e-006
   1   856   1     0     2     2  0.00972    0.00972    3.992e-006
   1   857   1     0     2     2  0.00972    0.00972    3.992e-006
   1   858   1     0     2     2  0.00972    0.00972    4.829e-006
   1   859   1     0     2     2  0.00973    0.00973    4.829e-006
   1   860   1     0     2     2  0.00973    0.00973    4.829e-006
   1   861   1     0     2     2  0.00974    0.00974    4.829e-006
   1   862   1     0     2     2  0.00974    0.00974    5.640e-006
   1   863   1     0     2     2  0.00975    0.00975    5.640e-006
   1   864   1     0     2     2  0.00976    0.00976    5.640e-006
   1   865   1     0     2     2  0.00976    0.00976    5.640e-006
   1   866   1     0     2     2  0.00977    0.00977    7.049e-006
   1   867   1     0     2     2  0.00978    0.00978    7.049e-006
   1   868   1     0     2     2  0.00978    0.00978    8.812e-006
   1   869   1     0     2     2  0.00979    0.00979    1.101e-005
   1   870   1     0     2     2  0.00981    0.00981    1.377e-005
   1   871   1U    0     2     2  0.00981    0.00981    1.377e-005
   1   871   2     0     2     2  0.00982    0.00982    1.134e-005
   1   872   1U    0     2     2  0.00982    0.00982    1.134e-005
   1   872   2     0     2     2  0.00983    0.00983    7.455e-006
   1   873   1     0     2     2  0.00983    0.00983    7.455e-006
   1   874   1     0     2     2  0.00984    0.00984    7.455e-006
   1   875   1     0     2     2  0.00985    0.00985    9.318e-006
   1   876   1     0     2     2  0.00986    0.00986    9.318e-006
   1   877   1     0     2     2  0.00987    0.00987    1.165e-005
   1   878   1     0     2     2  0.00989    0.00989    1.456e-005
   1   879   1     0     2     2  0.00991    0.00991    1.820e-005
   1   880   1     0     2     2  0.00993    0.00993    2.275e-005
   1   881   1     0     2     2  0.00996    0.00996    2.844e-005
   1   882   1     0     2     2  0.00999    0.00999    3.555e-005
   1   883   1U    0     2     2  0.00999    0.00999    4.443e-005
   1   883   2     0     2     2  0.0100     0.0100     2.904e-005
   1   884   1     0     2     2  0.0101     0.0101     2.904e-005
   1   885   1U    0     2     2  0.0101     0.0101     2.904e-005
   1   885   2     0     2     2  0.0101     0.0101     1.418e-005
   1   886   1     0     2     2  0.0101     0.0101     1.418e-005
   1   887   1U    0     2     2  0.0101     0.0101     1.418e-005
   1   887   2     0     2     2  0.0101     0.0101     1.192e-005
   1   888   1U    0     2     2  0.0101     0.0101     1.192e-005
   1   888   2     0     1     1  0.0101     0.0101     6.335e-006
   1   889   1     0     2     2  0.0101     0.0101     6.335e-006
   1   890   1U    0     2     2  0.0101     0.0101     6.335e-006
   1   890   2     0     1     1  0.0101     0.0101     4.473e-006
   1   891   1     0     2     2  0.0101     0.0101     4.473e-006
   1   892   1     0     2     2  0.0101     0.0101     4.473e-006
   1   893   1U    0     2     2  0.0101     0.0101     5.264e-006
   1   893   2     0     2     2  0.0101     0.0101     4.266e-006
   1   894   1     0     2     2  0.0101     0.0101     4.266e-006
   1   895   1     0     2     2  0.0101     0.0101     4.266e-006
   1   896   1     0     2     2  0.0101     0.0101     4.266e-006
   1   897   1     0     2     2  0.0101     0.0101     4.266e-006
   1   898   1     0     2     2  0.0101     0.0101     4.266e-006
   1   899   1     0     2     2  0.0101     0.0101     4.266e-006
   1   900   1     0     2     2  0.0102     0.0102     4.266e-006
   1   901   1     0     2     2  0.0102     0.0102     4.266e-006
   1   902   1     0     2     2  0.0102     0.0102     4.266e-006
   1   903   1     0     2     2  0.0102     0.0102     4.266e-006
   1   904   1     0     2     2  0.0102     0.0102     4.266e-006
   1   905   1     0     2     2  0.0102     0.0102     4.266e-006
   1   906   1     0     2     2  0.0102     0.0102     4.266e-006
   1   907   1     0     2     2  0.0102     0.0102     4.266e-006
   1   908   1     0     2     2  0.0102     0.0102     4.885e-006
   1   909   1U    0     2     2  0.0102     0.0102     4.885e-006
   1   909   2     0     2     2  0.0102     0.0102     3.817e-006
   1   910   1     0     2     2  0.0102     0.0102     3.817e-006
   1   911   1     0     2     2  0.0102     0.0102     3.817e-006
   1   912   1     0     2     2  0.0102     0.0102     4.771e-006
   1   913   1     0     2     2  0.0102     0.0102     4.771e-006
   1   914   1     0     2     2  0.0102     0.0102     4.771e-006
   1   915   1     0     2     2  0.0102     0.0102     4.771e-006
   1   916   1     0     2     2  0.0102     0.0102     4.771e-006
   1   917   1     0     2     2  0.0102     0.0102     4.771e-006
   1   918   1     0     2     2  0.0102     0.0102     4.771e-006
   1   919   1     0     2     2  0.0102     0.0102     4.771e-006
   1   920   1     0     2     2  0.0102     0.0102     4.771e-006
   1   921   1     0     2     2  0.0102     0.0102     4.771e-006
   1   922   1     0     2     2  0.0102     0.0102     4.771e-006
   1   923   1     0     2     2  0.0103     0.0103     4.771e-006
   1   924   1     0     2     2  0.0103     0.0103     4.771e-006
   1   925   1     0     2     2  0.0103     0.0103     4.771e-006
   1   926   1U    0     2     2  0.0103     0.0103     4.771e-006
   1   926   2     0     2     2  0.0103     0.0103     3.811e-006
   1   927   1     0     2     2  0.0103     0.0103     3.811e-006
   1   928   1     0     2     2  0.0103     0.0103     3.811e-006
   1   929   1U    0     2     2  0.0103     0.0103     4.596e-006
   1   929   2     0     2     2  0.0103     0.0103     3.112e-006
   1   930   1     0     2     2  0.0103     0.0103     3.112e-006
   1   931   1     0     2     2  0.0103     0.0103     3.112e-006
   1   932   1     0     2     2  0.0103     0.0103     3.112e-006
   1   933   1     0     2     2  0.0103     0.0103     3.112e-006
   1   934   1     0     2     2  0.0103     0.0103     3.112e-006
   1   935   1     0     2     2  0.0103     0.0103     3.112e-006
   1   936   1     0     2     2  0.0103     0.0103     3.112e-006
   1   937   1     0     2     2  0.0103     0.0103     3.112e-006
   1   938   1     0     2     2  0.0103     0.0103     3.112e-006
   1   939   1     0     2     2  0.0103     0.0103     3.112e-006
   1   940   1     0     2     2  0.0103     0.0103     3.112e-006
   1   941   1     0     2     2  0.0103     0.0103     3.112e-006
   1   942   1     0     2     2  0.0103     0.0103     3.112e-006
   1   943   1     0     2     2  0.0103     0.0103     3.112e-006
   1   944   1     0     2     2  0.0103     0.0103     3.112e-006
   1   945   1     0     2     2  0.0103     0.0103     3.112e-006
   1   946   1     0     2     2  0.0103     0.0103     3.112e-006
   1   947   1     0     2     2  0.0103     0.0103     3.112e-006
   1   948   1     0     2     2  0.0103     0.0103     3.112e-006
   1   949   1     0     2     2  0.0103     0.0103     3.112e-006
   1   950   1     0     2     2  0.0103     0.0103     3.112e-006
   1   951   1     0     2     2  0.0103     0.0103     3.112e-006
   1   952   1     0     2     2  0.0103     0.0103     3.112e-006
   1   953   1     0     2     2  0.0104     0.0104     3.112e-006
   1   954   1     0     2     2  0.0104     0.0104     3.112e-006
   1   955   1     0     2     2  0.0104     0.0104     3.112e-006
   1   956   1     0     2     2  0.0104     0.0104     3.112e-006
   1   957   1     0     2     2  0.0104     0.0104     3.579e-006
   1   958   1     0     2     2  0.0104     0.0104     3.579e-006
   1   959   1     0     2     2  0.0104     0.0104     3.579e-006
   1   960   1     0     2     2  0.0104     0.0104     3.579e-006
   1   961   1     0     2     2  0.0104     0.0104     3.579e-006
   1   962   1     0     2     2  0.0104     0.0104     4.474e-006
   1   963   1     0     2     2  0.0104     0.0104     5.564e-006
   1   964   1     0     2     2  0.0104     0.0104     5.564e-006
   1   965   1     0     2     2  0.0104     0.0104     5.564e-006
   1   966   1     0     2     2  0.0104     0.0104     5.564e-006
   1   967   1     0     2     2  0.0104     0.0104     6.955e-006
   1   968   1     0     2     2  0.0104     0.0104     8.693e-006
   1   969   1     0     2     2  0.0104     0.0104     1.087e-005
   1   970   1     0     2     2  0.0104     0.0104     1.358e-005
   1   971   1     0     2     2  0.0105     0.0105     1.698e-005
   1   972   1     0     2     2  0.0105     0.0105     2.122e-005
   1   973   1     0     2     2  0.0105     0.0105     2.653e-005
   1   974   1U    0     2     2  0.0105     0.0105     3.316e-005
   1   974   2     0     2     2  0.0105     0.0105     1.200e-005
   1   975   1     0     2     2  0.0105     0.0105     1.200e-005
   1   976   1     0     2     2  0.0105     0.0105     1.200e-005
   1   977   1U    0     2     2  0.0105     0.0105     1.200e-005
   1   977   2     0     2     2  0.0106     0.0106     1.020e-005
   1   978   1     0     2     2  0.0106     0.0106     1.020e-005
   1   979   1     0     2     2  0.0106     0.0106     1.020e-005
   1   980   1     0     2     2  0.0106     0.0106     1.020e-005
   1   981   1     0     2     2  0.0106     0.0106     1.020e-005
   1   982   1     0     2     2  0.0106     0.0106     1.275e-005
   1   983   1     0     2     2  0.0106     0.0106     1.593e-005
   1   984   1     0     2     2  0.0106     0.0106     1.593e-005
   1   985   1     0     2     2  0.0107     0.0107     1.593e-005
   1   986   1     0     2     2  0.0107     0.0107     1.593e-005
   1   987   1     0     2     2  0.0107     0.0107     1.593e-005
   1   988   1     0     2     2  0.0107     0.0107     1.593e-005
   1   989   1U    0     2     2  0.0107     0.0107     1.593e-005
   1   989   2     0     2     2  0.0107     0.0107     1.235e-005
   1   990   1     0     2     2  0.0107     0.0107     1.235e-005
   1   991   1     0     2     2  0.0107     0.0107     1.235e-005
   1   992   1     0     2     2  0.0108     0.0108     1.448e-005
   1   993   1     0     2     2  0.0108     0.0108     1.448e-005
   1   994   1     0     2     2  0.0108     0.0108     1.448e-005
   1   995   1     0     2     2  0.0108     0.0108     1.448e-005
   1   996   1U    0     2     2  0.0108     0.0108     1.448e-005
   1   996   2     0     1     1  0.0108     0.0108     6.535e-006
   1   997   1     0     2     2  0.0108     0.0108     6.535e-006
   1   998   1     0     2     2  0.0108     0.0108     6.535e-006
   1   999   1U    0     2     2  0.0108     0.0108     6.535e-006
   1   999   2     0     2     2  0.0108     0.0108     5.371e-006
   1  1000   1     0     2     2  0.0108     0.0108     5.371e-006
   1  1001   1     0     2     2  0.0108     0.0108     5.371e-006
   1  1002   1     0     2     2  0.0108     0.0108     5.371e-006
   1  1003   1     0     2     2  0.0108     0.0108     5.371e-006
   1  1004   1     0     2     2  0.0109     0.0109     6.714e-006
   1  1005   1     0     2     2  0.0109     0.0109     8.392e-006
   1  1006   1     0     2     2  0.0109     0.0109     1.039e-005
   1  1007   1     0     2     2  0.0109     0.0109     1.039e-005
   1  1008   1     0     2     2  0.0109     0.0109     1.039e-005
   1  1009   1     0     2     2  0.0109     0.0109     1.039e-005
   1  1010   1     0     2     2  0.0109     0.0109     1.299e-005
   1  1011   1     0     2     2  0.0109     0.0109     1.624e-005
   1  1012   1U    0     2     2  0.0109     0.0109     1.624e-005
   1  1012   2     0     2     2  0.0109     0.0109     1.274e-005
   1  1013   1     0     2     2  0.0110     0.0110     1.274e-005
   1  1014   1     0     2     2  0.0110     0.0110     1.274e-005
   1  1015   1     0     2     2  0.0110     0.0110     1.436e-005
   1  1016   1U    0     2     2  0.0110     0.0110     1.436e-005
   1  1016   2     0     1     1  0.0110     0.0110     8.743e-006
   1  1017   1     0     2     2  0.0110     0.0110     8.743e-006
   1  1018   1     0     2     2  0.0110     0.0110     8.743e-006
   1  1019   1     0     2     2  0.0110     0.0110     8.743e-006
   1  1020   1U    0     2     2  0.0110     0.0110     8.743e-006
   1  1020   2     0     2     2  0.0110     0.0110     7.332e-006
   1  1021   1     0     2     2  0.0110     0.0110     7.332e-006
   1  1022   1     0     2     2  0.0110     0.0110     7.332e-006
   1  1023   1     0     2     2  0.0111     0.0111     7.332e-006
   1  1024   1     0     2     2  0.0111     0.0111     7.332e-006
   1  1025   1     0     2     2  0.0111     0.0111     7.332e-006
   1  1026   1U    0     2     2  0.0111     0.0111     7.332e-006
   1  1026   2     0     2     2  0.0111     0.0111     5.753e-006
   1  1027   1     0     2     2  0.0111     0.0111     5.753e-006
   1  1028   1     0     2     2  0.0111     0.0111     5.753e-006
   1  1029   1     0     2     2  0.0111     0.0111     6.840e-006
   1  1030   1     0     2     2  0.0111     0.0111     6.840e-006
   1  1031   1     0     2     2  0.0111     0.0111     6.840e-006
   1  1032   1     0     2     2  0.0111     0.0111     6.840e-006
   1  1033   1     0     2     2  0.0111     0.0111     6.840e-006
   1  1034   1     0     2     2  0.0111     0.0111     6.840e-006
   1  1035   1     0     2     2  0.0111     0.0111     6.840e-006
   1  1036   1     0     2     2  0.0111     0.0111     7.781e-006
   1  1037   1     0     2     2  0.0111     0.0111     7.781e-006
   1  1038   1     0     2     2  0.0112     0.0112     7.781e-006
   1  1039   1     0     2     2  0.0112     0.0112     9.072e-006
   1  1040   1     0     2     2  0.0112     0.0112     9.072e-006
   1  1041   1     0     2     2  0.0112     0.0112     9.072e-006
   1  1042   1     0     2     2  0.0112     0.0112     1.134e-005
   1  1043   1     0     2     2  0.0112     0.0112     1.376e-005
   1  1044   1U    0     2     2  0.0112     0.0112     1.376e-005
   1  1044   2     0     2     2  0.0112     0.0112     9.924e-006
   1  1045   1     0     2     2  0.0112     0.0112     9.924e-006
   1  1046   1     0     1     1  0.0112     0.0112     9.924e-006
   1  1047   1     0     2     2  0.0112     0.0112     1.219e-005
   1  1048   1     0     2     2  0.0113     0.0113     1.219e-005
   1  1049   1     0     2     2  0.0113     0.0113     1.219e-005
   1  1050   1U    0     2     2  0.0113     0.0113     1.219e-005
   1  1050   2     0     1     1  0.0113     0.0113     6.542e-006
   1  1051   1     0     2     2  0.0113     0.0113     6.542e-006
[...]
   1  7646   2     0     2     2  0.0626     0.0626     3.962e-005
   1  7647   1     0     2     2  0.0627     0.0627     3.962e-005
   1  7648   1     0     2     2  0.0627     0.0627     3.962e-005
   1  7649   1U    0     2     2  0.0627     0.0627     3.962e-005
   1  7649   2     0     2     2  0.0627     0.0627     3.345e-005
   1  7650   1U    0     2     2  0.0627     0.0627     3.345e-005
   1  7650   2     0     1     1  0.0628     0.0628     2.329e-005
   1  7651   1     0     2     2  0.0628     0.0628     2.329e-005
   1  7652   1U    0     2     2  0.0628     0.0628     2.329e-005
   1  7652   2     0     2     2  0.0628     0.0628     1.768e-005
   1  7653   1     0     2     2  0.0628     0.0628     1.768e-005
   1  7654   1     0     2     2  0.0628     0.0628     1.768e-005
   1  7655   1     0     2     2  0.0629     0.0629     2.210e-005
   1  7656   1     0     2     2  0.0629     0.0629     2.210e-005
   1  7657   1     0     2     2  0.0629     0.0629     2.763e-005
   1  7658   1     0     2     2  0.0629     0.0629     2.763e-005
   1  7659   1     0     2     2  0.0630     0.0630     3.454e-005
   1  7660   1     0     2     2  0.0630     0.0630     3.454e-005
   1  7661   1     0     2     2  0.0630     0.0630     3.454e-005
   1  7662   1     0     2     2  0.0631     0.0631     3.454e-005
   1  7663   1     0     2     2  0.0631     0.0631     3.454e-005
   1  7664   1     0     2     2  0.0631     0.0631     3.454e-005
   1  7665   1     0     2     2  0.0632     0.0632     3.454e-005
   1  7666   1     0     2     2  0.0632     0.0632     4.317e-005
   1  7667   1U    0     2     2  0.0632     0.0632     4.317e-005
   1  7667   2     0     2     2  0.0633     0.0633     3.189e-005
   1  7668   1     0     2     2  0.0633     0.0633     3.189e-005
   1  7669   1     0     2     2  0.0633     0.0633     3.189e-005
   1  7670   1     0     2     2  0.0634     0.0634     3.987e-005
   1  7671   1     0     2     2  0.0634     0.0634     4.983e-005
   1  7672   1U    0     2     2  0.0634     0.0634     6.229e-005
   1  7672   2     0     2     2  0.0634     0.0634     2.803e-005
   1  7673   1     0     2     2  0.0635     0.0635     2.803e-005
   1  7674   1U    0     2     2  0.0635     0.0635     2.803e-005
   1  7674   2     0     1     1  0.0635     0.0635     1.683e-005
   1  7675   1U    0     2     2  0.0635     0.0635     1.683e-005
   1  7675   2     0     1     1  0.0635     0.0635     1.305e-005
   1  7676   1     0     2     2  0.0635     0.0635     1.305e-005
   1  7677   1U    0     2     2  0.0635     0.0635     1.305e-005
   1  7677   2     0     1     1  0.0635     0.0635     8.407e-006
   1  7678   1     0     2     2  0.0635     0.0635     8.407e-006
   1  7679   1     0     2     2  0.0635     0.0635     8.407e-006
   1  7680   1     0     2     2  0.0635     0.0635     8.407e-006
   1  7681   1     0     2     2  0.0635     0.0635     8.407e-006
   1  7682   1     0     2     2  0.0636     0.0636     8.407e-006
   1  7683   1     0     2     2  0.0636     0.0636     8.407e-006
   1  7684   1     0     2     2  0.0636     0.0636     8.407e-006
   1  7685   1     0     2     2  0.0636     0.0636     8.407e-006
   1  7686   1     0     2     2  0.0636     0.0636     8.407e-006
   1  7687   1     0     2     2  0.0636     0.0636     1.019e-005
   1  7688   1     0     2     2  0.0636     0.0636     1.019e-005
   1  7689   1     0     2     2  0.0636     0.0636     1.019e-005
   1  7690   1     0     2     2  0.0636     0.0636     1.019e-005
   1  7691   1     0     2     2  0.0636     0.0636     1.019e-005
   1  7692   1     0     2     2  0.0636     0.0636     1.119e-005
   1  7693   1     0     2     2  0.0637     0.0637     1.119e-005
   1  7694   1     0     2     2  0.0637     0.0637     1.119e-005
   1  7695   1     0     2     2  0.0637     0.0637     1.399e-005
   1  7696   1     0     2     2  0.0637     0.0637     1.748e-005
   1  7697   1     0     2     2  0.0637     0.0637     2.186e-005
   1  7698   1     0     2     2  0.0637     0.0637     2.186e-005
   1  7699   1     0     2     2  0.0638     0.0638     2.186e-005
   1  7700   1     0     2     2  0.0638     0.0638     2.186e-005
   1  7701   1     0     2     2  0.0638     0.0638     2.624e-005
   1  7702   1     0     2     2  0.0638     0.0638     2.624e-005
   1  7703   1     0     2     2  0.0639     0.0639     2.624e-005
   1  7704   1U    0     2     2  0.0639     0.0639     3.281e-005
   1  7704   2     0     2     2  0.0639     0.0639     1.764e-005
   1  7705   1U    0     2     2  0.0639     0.0639     1.764e-005
   1  7705   2     0     2     2  0.0639     0.0639     1.323e-005
   1  7706   1     0     2     2  0.0639     0.0639     1.323e-005
   1  7707   1U    0     2     2  0.0639     0.0639     1.323e-005
   1  7707   2     0     1     1  0.0639     0.0639     1.013e-005
   1  7708   1     0     2     2  0.0639     0.0639     1.013e-005
   1  7709   1U    0     2     2  0.0639     0.0639     1.013e-005
   1  7709   2     0     1     1  0.0639     0.0639     7.488e-006
   1  7710   1     0     2     2  0.0639     0.0639     7.488e-006
   1  7711   1     0     2     2  0.0640     0.0640     7.488e-006
   1  7712   1     0     2     2  0.0640     0.0640     7.488e-006
   1  7713   1     0     2     2  0.0640     0.0640     7.488e-006
   1  7714   1     0     2     2  0.0640     0.0640     8.252e-006
   1  7715   1     0     2     2  0.0640     0.0640     8.252e-006
   1  7716   1     0     2     2  0.0640     0.0640     8.252e-006
   1  7717   1     0     2     2  0.0640     0.0640     8.252e-006
   1  7718   1     0     2     2  0.0640     0.0640     8.252e-006
   1  7719   1     0     2     2  0.0640     0.0640     8.252e-006
   1  7720   1     0     2     2  0.0640     0.0640     8.252e-006
   1  7721   1     0     2     2  0.0640     0.0640     9.667e-006
   1  7722   1     0     2     2  0.0640     0.0640     9.667e-006
   1  7723   1     0     2     2  0.0641     0.0641     9.667e-006
   1  7724   1     0     2     2  0.0641     0.0641     9.667e-006
   1  7725   1     0     2     2  0.0641     0.0641     9.667e-006
   1  7726   1     0     2     2  0.0641     0.0641     9.667e-006
   1  7727   1     0     2     2  0.0641     0.0641     1.208e-005
   1  7728   1     0     2     2  0.0641     0.0641     1.510e-005
   1  7729   1     0     2     2  0.0641     0.0641     1.510e-005
   1  7730   1     0     2     2  0.0641     0.0641     1.510e-005
   1  7731   1     0     2     2  0.0642     0.0642     1.510e-005
   1  7732   1     0     2     2  0.0642     0.0642     1.888e-005
   1  7733   1U    0     2     2  0.0642     0.0642     1.888e-005
   1  7733   2     0     2     2  0.0642     0.0642     1.421e-005
   1  7734   1     0     2     2  0.0642     0.0642     1.421e-005
   1  7735   1     0     2     2  0.0642     0.0642     1.421e-005
   1  7736   1     0     2     2  0.0642     0.0642     1.675e-005
   1  7737   1     0     2     2  0.0643     0.0643     1.675e-005
   1  7738   1     0     2     2  0.0643     0.0643     1.675e-005
   1  7739   1     0     2     2  0.0643     0.0643     1.675e-005
   1  7740   1     0     2     2  0.0643     0.0643     1.675e-005
   1  7741   1     0     2     2  0.0643     0.0643     1.675e-005
   1  7742   1     0     2     2  0.0643     0.0643     2.094e-005
   1  7743   1     0     2     2  0.0644     0.0644     2.618e-005
   1  7744   1     0     2     2  0.0644     0.0644     3.272e-005
   1  7745   1U    0     2     2  0.0644     0.0644     3.596e-005
   1  7745   2     0     2     2  0.0644     0.0644     2.691e-005
   1  7746   1U    0     2     2  0.0644     0.0644     2.691e-005
   1  7746   2     0     2     2  0.0645     0.0645     2.258e-005
   1  7747   1     0     2     2  0.0645     0.0645     2.258e-005
   1  7748   1     0     2     2  0.0645     0.0645     2.258e-005
   1  7749   1     0     2     2  0.0645     0.0645     2.258e-005
   1  7750   1     0     2     2  0.0645     0.0645     2.258e-005
   1  7751   1     0     2     2  0.0646     0.0646     2.258e-005
   1  7752   1     0     2     2  0.0646     0.0646     2.258e-005
   1  7753   1     0     2     2  0.0646     0.0646     2.822e-005
   1  7754   1     0     2     2  0.0647     0.0647     3.528e-005
   1  7755   1     0     2     2  0.0647     0.0647     4.410e-005
   1  7756   1     0     2     2  0.0647     0.0647     5.512e-005
   1  7757   1     0     2     2  0.0648     0.0648     6.891e-005
   1  7758   1     0     2     2  0.0649     0.0649     8.613e-005
   1  7759   1     0     2     2  0.0650     0.0650     0.0001000 
   1  7760   1     0     2     2  0.0651     0.0651     0.0001000 
   1  7761   1     0     2     2  0.0652     0.0652     0.0001000 
   1  7762   1     0     2     2  0.0653     0.0653     0.0001000 
   1  7763   1U    0     2     2  0.0653     0.0653     0.0001000 
   1  7763   2     0     2     2  0.0654     0.0654     6.907e-005
   1  7764   1     0     2     2  0.0654     0.0654     6.907e-005
   1  7765   1     0     2     2  0.0655     0.0655     6.907e-005
   1  7766   1     0     2     2  0.0656     0.0656     8.634e-005
   1  7767   1U    0     2     2  0.0656     0.0656     0.0001000 
   1  7767   2     0     2     2  0.0657     0.0657     6.388e-005
   1  7768   1     0     2     2  0.0657     0.0657     6.388e-005
   1  7769   1     0     2     2  0.0658     0.0658     6.388e-005
   1  7770   1     0     2     2  0.0659     0.0659     7.985e-005
   1  7771   1     0     2     2  0.0660     0.0660     9.981e-005
   1  7772   1     0     2     2  0.0661     0.0661     0.0001000 
   1  7773   1     0     2     2  0.0662     0.0662     0.0001000 
   1  7774   1     0     2     2  0.0663     0.0663     0.0001000 
   1  7775   1     0     2     2  0.0664     0.0664     0.0001000 
   1  7776   1     0     2     2  0.0665     0.0665     0.0001000 
   1  7777   1     0     2     2  0.0666     0.0666     0.0001000 
   1  7778   1     0     2     2  0.0667     0.0667     0.0001000 
   1  7779   1     0     2     2  0.0668     0.0668     0.0001000 
   1  7780   1     0     2     2  0.0669     0.0669     0.0001000 
   1  7781   1U    0     2     2  0.0669     0.0669     0.0001000 
   1  7781   2     0     2     2  0.0669     0.0669     5.550e-005
   1  7782   1     0     2     2  0.0670     0.0670     5.550e-005
   1  7783   1     0     2     2  0.0670     0.0670     5.550e-005
   1  7784   1     0     2     2  0.0671     0.0671     6.938e-005
   1  7785   1     0     2     2  0.0672     0.0672     8.672e-005
   1  7786   1     0     2     2  0.0673     0.0673     8.672e-005
   1  7787   1     0     2     2  0.0674     0.0674     8.672e-005
   1  7788   1     0     2     2  0.0675     0.0675     8.672e-005
   1  7789   1     0     2     2  0.0675     0.0675     8.672e-005
   1  7790   1     0     2     2  0.0676     0.0676     0.0001000 
   1  7791   1     0     2     2  0.0677     0.0677     0.0001000 
   1  7792   1     0     2     2  0.0678     0.0678     0.0001000 
   1  7793   1     0     2     2  0.0679     0.0679     0.0001000 
   1  7794   1     0     2     2  0.0680     0.0680     0.0001000 
   1  7795   1     0     2     2  0.0681     0.0681     0.0001000 
   1  7796   1     0     2     2  0.0682     0.0682     0.0001000 
   1  7797   1     0     2     2  0.0683     0.0683     0.0001000 
   1  7798   1     0     2     2  0.0684     0.0684     0.0001000 
   1  7799   1     0     2     2  0.0685     0.0685     0.0001000 
   1  7800   1     0     2     2  0.0686     0.0686     0.0001000 
   1  7801   1     0     2     2  0.0687     0.0687     0.0001000 
   1  7802   1     0     2     2  0.0688     0.0688     0.0001000 
   1  7803   1     0     2     2  0.0689     0.0689     0.0001000 
   1  7804   1     0     2     2  0.0690     0.0690     0.0001000 
   1  7805   1     0     2     2  0.0691     0.0691     0.0001000 
   1  7806   1     0     2     2  0.0692     0.0692     0.0001000 
   1  7807   1     0     2     2  0.0693     0.0693     0.0001000 
   1  7808   1     0     2     2  0.0694     0.0694     0.0001000 
   1  7809   1     0     2     2  0.0695     0.0695     0.0001000 
   1  7810   1     0     2     2  0.0696     0.0696     0.0001000 
   1  7811   1     0     2     2  0.0697     0.0697     0.0001000 
   1  7812   1     0     2     2  0.0698     0.0698     0.0001000 
   1  7813   1     0     2     2  0.0699     0.0699     0.0001000 
   1  7814   1     0     2     2  0.0700     0.0700     0.0001000 
   1  7815   1     0     2     2  0.0701     0.0701     0.0001000 
   1  7816   1     0     2     2  0.0702     0.0702     0.0001000 
   1  7817   1     0     2     2  0.0703     0.0703     0.0001000 
   1  7818   1     0     2     2  0.0704     0.0704     0.0001000 
   1  7819   1     0     2     2  0.0705     0.0705     0.0001000 
   1  7820   1     0     2     2  0.0706     0.0706     0.0001000 
   1  7821   1     0     2     2  0.0707     0.0707     0.0001000 
   1  7822   1     0     2     2  0.0708     0.0708     0.0001000 
   1  7823   1     0     2     2  0.0709     0.0709     0.0001000 
   1  7824   1     0     2     2  0.0710     0.0710     0.0001000 
   1  7825   1     0     2     2  0.0711     0.0711     0.0001000 
   1  7826   1     0     2     2  0.0712     0.0712     0.0001000 
   1  7827   1     0     2     2  0.0713     0.0713     0.0001000 
   1  7828   1     0     2     2  0.0714     0.0714     0.0001000 
   1  7829   1     0     1     1  0.0715     0.0715     0.0001000 
   1  7830   1     0     2     2  0.0716     0.0716     0.0001000 
   1  7831   1     0     2     2  0.0717     0.0717     0.0001000 
   1  7832   1     0     2     2  0.0718     0.0718     0.0001000 
   1  7833   1     0     2     2  0.0719     0.0719     0.0001000 
   1  7834   1     0     2     2  0.0720     0.0720     0.0001000 
   1  7835   1     0     2     2  0.0721     0.0721     0.0001000 
   1  7836   1     0     2     2  0.0722     0.0722     0.0001000 
   1  7837   1     0     2     2  0.0723     0.0723     0.0001000 
   1  7838   1     0     2     2  0.0724     0.0724     0.0001000 
   1  7839   1     0     2     2  0.0725     0.0725     0.0001000 
   1  7840   1     0     2     2  0.0726     0.0726     0.0001000 
   1  7841   1     0     2     2  0.0727     0.0727     0.0001000 
   1  7842   1     0     2     2  0.0728     0.0728     0.0001000 
   1  7843   1     0     2     2  0.0729     0.0729     0.0001000 
   1  7844   1     0     2     2  0.0730     0.0730     0.0001000 
   1  7845   1     0     2     2  0.0731     0.0731     0.0001000 
   1  7846   1     0     2     2  0.0732     0.0732     0.0001000 
   1  7847   1     0     2     2  0.0733     0.0733     0.0001000 
   1  7848   1     0     2     2  0.0734     0.0734     0.0001000 
   1  7849   1     0     2     2  0.0735     0.0735     0.0001000 
   1  7850   1     0     2     2  0.0736     0.0736     0.0001000 
   1  7851   1     0     2     2  0.0737     0.0737     0.0001000 
   1  7852   1U    0     2     2  0.0737     0.0737     0.0001000 
   1  7852   2     0     2     2  0.0738     0.0738     7.037e-005
   1  7853   1     0     2     2  0.0739     0.0739     7.037e-005
   1  7854   1     0     2     2  0.0740     0.0740     7.037e-005
   1  7855   1     0     2     2  0.0740     0.0740     8.796e-005
   1  7856   1U    0     2     2  0.0740     0.0740     0.0001000 
   1  7856   2     0     2     2  0.0741     0.0741     6.826e-005
   1  7857   1     0     2     2  0.0742     0.0742     6.826e-005
   1  7858   1     0     2     2  0.0742     0.0742     6.826e-005
   1  7859   1     0     2     2  0.0743     0.0743     8.532e-005
   1  7860   1     0     2     2  0.0744     0.0744     8.532e-005
   1  7861   1     0     2     2  0.0745     0.0745     8.532e-005
   1  7862   1     0     2     2  0.0746     0.0746     8.532e-005
   1  7863   1     0     2     2  0.0747     0.0747     0.0001000 
   1  7864   1     0     2     2  0.0748     0.0748     0.0001000 
   1  7865   1     0     2     2  0.0749     0.0749     0.0001000 
   1  7866   1     0     2     2  0.0750     0.0750     0.0001000 
   1  7867   1     0     2     2  0.0751     0.0751     0.0001000 
   1  7868   1     0     2     2  0.0752     0.0752     0.0001000 
   1  7869   1     0     2     2  0.0753     0.0753     0.0001000 
   1  7870   1     0     2     2  0.0754     0.0754     0.0001000 
   1  7871   1     0     2     2  0.0755     0.0755     0.0001000 
   1  7872   1     0     2     2  0.0756     0.0756     0.0001000 
   1  7873   1     0     2     2  0.0757     0.0757     0.0001000 
   1  7874   1     0     2     2  0.0758     0.0758     0.0001000 
   1  7875   1     0     2     2  0.0759     0.0759     0.0001000 
   1  7876   1     0     2     2  0.0760     0.0760     0.0001000 
   1  7877   1     0     2     2  0.0761     0.0761     0.0001000 
   1  7878   1     0     2     2  0.0762     0.0762     0.0001000 
   1  7879   1     0     2     2  0.0763     0.0763     0.0001000 
   1  7880   1     0     2     2  0.0764     0.0764     0.0001000 
   1  7881   1     0     2     2  0.0765     0.0765     0.0001000 
   1  7882   1     0     2     2  0.0766     0.0766     0.0001000 
   1  7883   1     0     2     2  0.0767     0.0767     0.0001000 
   1  7884   1U    0     2     2  0.0767     0.0767     0.0001000 
   1  7884   2     0     2     2  0.0768     0.0768     8.326e-005
   1  7885   1     0     2     2  0.0769     0.0769     8.326e-005
   1  7886   1     0     2     2  0.0769     0.0769     8.326e-005
   1  7887   1     0     2     2  0.0770     0.0770     8.326e-005
   1  7888   1     0     2     2  0.0771     0.0771     0.0001000 
   1  7889   1     0     2     2  0.0772     0.0772     0.0001000 
   1  7890   1     0     2     2  0.0773     0.0773     0.0001000 
   1  7891   1     0     2     2  0.0774     0.0774     0.0001000 
   1  7892   1     0     2     2  0.0775     0.0775     0.0001000 
   1  7893   1     0     2     2  0.0776     0.0776     0.0001000 
   1  7894   1     0     2     2  0.0777     0.0777     0.0001000 
   1  7895   1     0     2     2  0.0778     0.0778     0.0001000 
   1  7896   1     0     2     2  0.0779     0.0779     0.0001000 
   1  7897   1     0     2     2  0.0780     0.0780     0.0001000 
   1  7898   1     0     2     2  0.0781     0.0781     0.0001000 
   1  7899   1     0     2     2  0.0782     0.0782     0.0001000 
   1  7900   1     0     2     2  0.0783     0.0783     0.0001000 
   1  7901   1     0     2     2  0.0784     0.0784     0.0001000 
   1  7902   1     0     2     2  0.0785     0.0785     0.0001000 
   1  7903   1     0     2     2  0.0786     0.0786     0.0001000 
   1  7904   1     0     2     2  0.0787     0.0787     0.0001000 
   1  7905   1     0     2     2  0.0788     0.0788     0.0001000 
   1  7906   1     0     2     2  0.0789     0.0789     0.0001000 
   1  7907   1     0     2     2  0.0790     0.0790     0.0001000 
   1  7908   1     0     2     2  0.0791     0.0791     0.0001000 
   1  7909   1     0     2     2  0.0792     0.0792     0.0001000 
   1  7910   1     0     2     2  0.0793     0.0793     0.0001000 
   1  7911   1     0     2     2  0.0794     0.0794     0.0001000 
   1  7912   1     0     2     2  0.0795     0.0795     0.0001000 
   1  7913   1     0     2     2  0.0796     0.0796     0.0001000 
   1  7914   1     0     2     2  0.0797     0.0797     0.0001000 
   1  7915   1     0     2     2  0.0798     0.0798     0.0001000 
   1  7916   1     0     2     2  0.0799     0.0799     0.0001000 
   1  7917   1     0     2     2  0.0800     0.0800     8.287e-005
                          
 THE ANALYSIS HAS COMPLETED SUCCESSFULLY
